*Heading
** Job name: pipe_mode_abq Model name: StructureModel_ABQ
** Generated by: Abaqus/CAE 6.10-1
*Preprint, echo=NO, model=NO, history=NO, contact=NO
**
** PARTS
**
*Part, name=pipe-1
*Node
      1, 0.0500000007,           0.,          0.5
      2, 0.0500000007,           0.,           0.
      3, -0.0500000007,           0.,           0.
      4, -0.0500000007,           0.,          0.5
      5, 0.0599999987,           0.,           0.
      6, -0.0599999987,           0.,           0.
      7, -0.0599999987,           0.,          0.5
      8, 0.0599999987,           0.,          0.5
      9, 0.0500000007,           0.,   0.49000001
     10, 0.0500000007,           0.,  0.479999989
     11, 0.0500000007,           0.,  0.469999999
     12, 0.0500000007,           0.,  0.460000008
     13, 0.0500000007,           0.,  0.449999988
     14, 0.0500000007,           0.,  0.439999998
     15, 0.0500000007,           0.,  0.430000007
     16, 0.0500000007,           0.,  0.419999987
     17, 0.0500000007,           0.,  0.409999996
     18, 0.0500000007,           0.,  0.400000006
     19, 0.0500000007,           0.,  0.389999986
     20, 0.0500000007,           0.,  0.379999995
** ... 3448 like lines cut
*Element, type=C3D8I
  1,    8,  187, 1117,  253,    1,    9,  333,  138
  2,  187,  186, 1118, 1117,    9,   10,  334,  333
  3,  186,  185, 1119, 1118,   10,   11,  335,  334
  4,  185,  184, 1120, 1119,   11,   12,  336,  335
  5,  184,  183, 1121, 1120,   12,   13,  337,  336
  6,  183,  182, 1122, 1121,   13,   14,  338,  337
  7,  182,  181, 1123, 1122,   14,   15,  339,  338
  8,  181,  180, 1124, 1123,   15,   16,  340,  339
  9,  180,  179, 1125, 1124,   16,   17,  341,  340
 10,  179,  178, 1126, 1125,   17,   18,  342,  341
 11,  178,  177, 1127, 1126,   18,   19,  343,  342
 12,  177,  176, 1128, 1127,   19,   20,  344,  343
 13,  176,  175, 1129, 1128,   20,   21,  345,  344
 14,  175,  174, 1130, 1129,   21,   22,  346,  345
 15,  174,  173, 1131, 1130,   22,   23,  347,  346
 16,  173,  172, 1132, 1131,   23,   24,  348,  347
 17,  172,  171, 1133, 1132,   24,   25,  349,  348
 18,  171,  170, 1134, 1133,   25,   26,  350,  349
 19,  170,  169, 1135, 1134,   26,   27,  351,  350
 20,  169,  168, 1136, 1135,   27,   28,  352,  351
** ... 1680 like lines cut
*Nset, nset=_PickedSet2, internal, generate
    1,  3468,     1
*Elset, elset=_PickedSet2, internal, generate
    1,  1700,     1
** Section: Section-1
*Solid Section, elset=_PickedSet2, material=steel
,
*End Part
**  
**
** ASSEMBLY
**
*Assembly, name=Assembly
**  
*Instance, name=pipe-1-1, part=pipe-1
*End Instance
**  
*Nset, nset=_PickedSet27, internal, instance=pipe-1-1
   1,   2,   3,   4,   5,   6,   7,   8,  58,  59,  60,  61,  62,  63,  64,  65
  66,  67,  68,  69,  70,  71,  72,  73, 123, 124, 125, 126, 127, 128, 129, 130
 131, 132, 133, 134, 135, 136, 137, 138, 188, 189, 190, 191, 192, 193, 194, 195
 196, 197, 198, 199, 200, 201, 202, 203, 253, 254, 255, 256, 257, 258, 259, 260
 261, 262, 263, 264, 265, 266, 267, 268, 269, 270, 271, 272, 273, 274, 275, 276
 277, 278, 279, 280, 281, 282, 283, 284, 285, 286, 287, 288, 289, 290, 291, 292
 293, 294, 295, 296, 297, 298, 299, 300, 301, 302, 303, 304, 305, 306, 307, 308
 309, 310, 311, 312, 313, 314, 315, 316, 317, 318, 319, 320, 321, 322, 323, 324
 325, 326, 327, 328, 329, 330, 331, 332
*Elset, elset=_PickedSet27, internal, instance=pipe-1-1
    1,   50,   51,  100,  101,  150,  151,  200,  201,  250,  251,  300,  301,  350,  351,  400
  401,  450,  451,  500,  501,  550,  551,  600,  601,  650,  651,  700,  701,  750,  751,  800
  801,  850,  851,  900,  901,  950,  951, 1000, 1001, 1050, 1051, 1100, 1101, 1150, 1151, 1200
 1201, 1250, 1251, 1300, 1301, 1350, 1351, 1400, 1401, 1450, 1451, 1500, 1501, 1550, 1551, 1600
 1601, 1650, 1651, 1700
*Nset, nset=_PickedSet29, internal, instance=pipe-1-1
    5,    6,    7,    8,  139,  140,  141,  142,  143,  144,  145,  146,  147,  148,  149,  150
  151,  152,  153,  154,  155,  156,  157,  158,  159,  160,  161,  162,  163,  164,  165,  166
  167,  168,  169,  170,  171,  172,  173,  174,  175,  176,  177,  178,  179,  180,  181,  182
  183,  184,  185,  186,  187,  188,  189,  190,  191,  192,  193,  194,  195,  196,  197,  198
  199,  200,  201,  202,  203,  204,  205,  206,  207,  208,  209,  210,  211,  212,  213,  214
  215,  216,  217,  218,  219,  220,  221,  222,  223,  224,  225,  226,  227,  228,  229,  230
  231,  232,  233,  234,  235,  236,  237,  238,  239,  240,  241,  242,  243,  244,  245,  246
  247,  248,  249,  250,  251,  252,  253,  254,  255,  256,  257,  258,  259,  260,  261,  262
  263,  264,  265,  266,  267,  268,  301,  302,  303,  304,  305,  306,  307,  308,  309,  310
  311,  312,  313,  314,  315,  316,  317,  318,  319,  320,  321,  322,  323,  324,  325,  326
  327,  328,  329,  330,  331,  332, 1117, 1118, 1119, 1120, 1121, 1122, 1123, 1124, 1125, 1126
 1127, 1128, 1129, 1130, 1131, 1132, 1133, 1134, 1135, 1136, 1137, 1138, 1139, 1140, 1141, 1142
 1143, 1144, 1145, 1146, 1147, 1148, 1149, 1150, 1151, 1152, 1153, 1154, 1155, 1156, 1157, 1158
 1159, 1160, 1161, 1162, 1163, 1164, 1165, 1166, 1167, 1168, 1169, 1170, 1171, 1172, 1173, 1174
 1175, 1176, 1177, 1178, 1179, 1180, 1181, 1182, 1183, 1184, 1185, 1186, 1187, 1188, 1189, 1190
 1191, 1192, 1193, 1194, 1195, 1196, 1197, 1198, 1199, 1200, 1201, 1202, 1203, 1204, 1205, 1206
 1207, 1208, 1209, 1210, 1211, 1212, 1213, 1214, 1215, 1216, 1217, 1218, 1219, 1220, 1221, 1222
 1223, 1224, 1225, 1226, 1227, 1228, 1229, 1230, 1231, 1232, 1233, 1234, 1235, 1236, 1237, 1238
 1239, 1240, 1241, 1242, 1243, 1244, 1245, 1246, 1247, 1248, 1249, 1250, 1251, 1252, 1253, 1254
 1255, 1256, 1257, 1258, 1259, 1260, 1261, 1262, 1263, 1264, 1265, 1266, 1267, 1268, 1269, 1270
** ... 89 like lines cut
*Elset, elset=_PickedSet29, internal, instance=pipe-1-1, generate
    1,  1700,     1
*Elset, elset=__PickedSurf25_S2, internal, instance=pipe-1-1, generate
    1,  1700,     1
*Surface, type=ELEMENT, name=_PickedSurf25, internal
__PickedSurf25_S2, S2
*End Assembly
** 
** MATERIALS
** 
*Material, name=steel
*Elastic
 2.15e+09, 0.28
** ----------------------------------------------------------------
** 
** STEP: static
** 
*Step, name=static
*Static, direct
0.1, 1., 
** 
** BOUNDARY CONDITIONS
** 
** Name: BC-1 Type: Displacement/Rotation
*Boundary
_PickedSet27, 3, 3
** Name: BC-2 Type: Displacement/Rotation
*Boundary
_PickedSet29, 1, 1
_PickedSet29, 2, 2
** 
** LOADS
** 
** Name: Load-1   Type: Pressure
*Dsload
_PickedSurf25, P, 1.
** 
** OUTPUT REQUESTS
** 
*Restart, write, frequency=0
** 
** FIELD OUTPUT: F-Output-1
** 
*Output, field
*Node Output
CF, RF, TF, U
*Element Output, directions=YES
LE, NFORC, P, PE, PEEQ, PEMAG, S, SF
*Contact Output
CDISP, CSTRESS
** 
** HISTORY OUTPUT: H-Output-1
** 
*Output, history, variable=PRESELECT
*End Step
