*Heading
** Job name: aeroheating_dflux-sub Model name: aeroheating_dflux-Copy
** Generated by: Abaqus/CAE 6.10-1
*Preprint, echo=NO, model=NO, history=NO, contact=NO
**
** PARTS
**
*Part, name=PART-1
*Node
      8,   1.99995387,  0.166666672, 0.0793014318
     14,   4.51666832,  0.166666672, 0.0289671421
     15,    3.6833334,           0., -0.0682666674
     19,   2.16666675,           0., 0.0904666632
     20,   4.51666832,  0.166666672, -0.0327671431
     21,           0.,           0., -0.00380000006
     24,   2.38333344,           0., 0.0991333351
     57,   1.37077522,  0.166666672, 0.0541342869
     81,  0.741596639,  0.166666672, 0.0289671421
     85,   1.08333337,           0.,  0.047133334
     90,  0.531870484,  0.166666672, 0.0205780957
     99,   0.32214427,  0.166666672, 0.0121890474
    103,  0.112418085,  0.166666672, 0.00380000006
    107,           0.,           0., 0.00380000006
    136,   4.76666689,           0., 0.0211333334
    152,         3.25,           0., 0.0817999989
    154,   2.20968008,  0.166666672, 0.0876904726
    171,   5.14584684,  0.166666672, 0.00380000006
    192,    2.8388586,  0.166666672, 0.0960795209
    200,  0.649999976,           0., 0.0335999988
** ... 276 like lines cut
*Element, type=DS3
 161, 2220, 2500,  860
 162,  860, 2500,  861
 169, 2220,  860, 2171
 170, 2171,  860, 2217
 171, 2500, 2542,  861
 172,  861, 2542, 2211
 181, 2171, 2217, 2177
 182, 2177, 2217, 2490
 187, 2542, 2594, 2211
 188, 2211, 2594, 2593
 197, 2177, 2490, 2487
 198, 2487, 2490, 2175
 209, 2594, 2476, 2593
 210, 2593, 2476, 2441
 219, 2487, 2175, 2314
 220, 2314, 2175, 2181
 235, 2476, 2616, 2441
 236, 2441, 2616, 2466
 245, 2314, 2181, 2370
 246, 2370, 2181, 2289
** ... 76 like lines cut
*Element, type=DC3D6
2395, 2376, 2340, 1520,  544, 2082, 2062
2396, 2240, 2340, 2376,   21, 2082,  544
2427, 1521, 1520, 1537,  613, 2062, 2038
2428, 2376, 1520, 1521,  544, 2062,  613
2459, 1538, 1537, 1443,  665, 2038,  671
2460, 1521, 1537, 1538,  613, 2038,  665
2491, 1557, 1443, 1462,  724,  671, 2033
2492, 1538, 1443, 1557,  665,  671,  724
2523, 1463, 1462, 1481, 2022, 2033, 2003
2524, 1557, 1462, 1463,  724, 2033, 2022
2555, 1482, 1481, 1606, 2018, 2003,  741
2556, 1463, 1481, 1482, 2022, 2003, 2018
2591, 1672, 1606, 2265, 2004,  741, 1984
2592, 1482, 1606, 1672, 2018,  741, 2004
2629, 2306, 2265, 2320,  760, 1984, 1977
2630, 1672, 2265, 2306, 2004, 1984,  760
2663, 2299, 2320, 2411, 1985, 1977, 1969
2664, 2306, 2320, 2299,  760, 1977, 1985
2693, 2214, 2411, 2541,  794, 1969,  642
2694, 2299, 2411, 2214, 1985, 1969,  794
** ... 172 like lines cut
*Elset, elset=RENE41
 3997, 3998, 4021, 4022, 4047, 4048, 4073, 4074, 4097, 4098, 4119, 4120, 4139, 4140, 4157, 4158
 4173, 4174, 4187, 4188, 4199, 4200, 4279, 4280, 4287, 4288, 4295, 4296, 4305, 4306, 4317, 4318
 4331, 4332, 4347, 4348, 4365, 4366, 4385, 4386, 4407, 4408, 4429, 4430, 4449, 4450, 4655, 4656
 4987, 4988, 5019, 5020, 5051, 5052, 5083, 5084, 5115, 5116, 5147, 5148, 5183, 5184, 5221, 5222
 5255, 5256, 5285, 5286, 5311, 5312, 5335, 5336, 5359, 5360, 5383, 5384, 5405, 5406, 5425, 5426
 5443, 5444, 5459, 5460, 5473, 5474, 5485, 5486, 5495, 5496, 5503, 5504, 5509, 5510, 5513, 5514
*Elset, elset=Min-K
 2395, 2396, 2427, 2428, 2459, 2460, 2491, 2492, 2523, 2524, 2555, 2556, 2591, 2592, 2629, 2630
 2663, 2664, 2693, 2694, 2719, 2720, 2743, 2744, 2767, 2768, 2791, 2792, 2813, 2814, 2833, 2834
 2851, 2852, 2867, 2868, 2881, 2882, 2893, 2894, 2903, 2904, 2911, 2912, 2917, 2918, 2921, 2922
 3059, 3060, 3067, 3068, 3075, 3076, 3085, 3086, 3097, 3098, 3111, 3112, 3127, 3128, 3145, 3146
 3165, 3166, 3187, 3188, 3211, 3212, 3237, 3238, 3265, 3266, 3295, 3296, 3327, 3328, 3361, 3362
 3397, 3398, 3433, 3434, 3469, 3470, 3505, 3506, 3541, 3542, 3577, 3578, 3611, 3612, 3641, 3642
*Elset, elset=TIMETAL_Skin
  161,  162,  169,  170,  171,  172,  181,  182,  187,  188,  197,  198,  209,  210,  219,  220
  235,  236,  245,  246,  263,  264,  273,  274,  297,  298,  307,  308,  341,  342,  351,  352
  387,  388,  397,  398,  435,  436,  445,  446,  489,  490,  499,  500,  551,  552,  561,  562
  611,  612,  621,  622,  677,  678,  687,  688,  749,  750,  759,  760,  827,  828,  837,  838
  917,  918,  927,  928, 1005, 1006, 1015, 1016, 1093, 1094, 1103, 1104, 1175, 1176, 1185, 1186
 1257, 1258, 1267, 1268, 1337, 1338, 1347, 1348, 1423, 1424, 1433, 1434, 1503, 1504, 1507, 1508
*Elset, elset=_PickedSet7, internal
 2395, 2396, 2427, 2428, 2459, 2460, 2491, 2492, 2523, 2524, 2555, 2556, 2591, 2592, 2629, 2630
 2663, 2664, 2693, 2694, 2719, 2720, 2743, 2744, 2767, 2768, 2791, 2792, 2813, 2814, 2833, 2834
 2851, 2852, 2867, 2868, 2881, 2882, 2893, 2894, 2903, 2904, 2911, 2912, 2917, 2918, 2921, 2922
 3059, 3060, 3067, 3068, 3075, 3076, 3085, 3086, 3097, 3098, 3111, 3112, 3127, 3128, 3145, 3146
 3165, 3166, 3187, 3188, 3211, 3212, 3237, 3238, 3265, 3266, 3295, 3296, 3327, 3328, 3361, 3362
 3397, 3398, 3433, 3434, 3469, 3470, 3505, 3506, 3541, 3542, 3577, 3578, 3611, 3612, 3641, 3642
*Elset, elset=_PickedSet8, internal
 3997, 3998, 4021, 4022, 4047, 4048, 4073, 4074, 4097, 4098, 4119, 4120, 4139, 4140, 4157, 4158
 4173, 4174, 4187, 4188, 4199, 4200, 4279, 4280, 4287, 4288, 4295, 4296, 4305, 4306, 4317, 4318
 4331, 4332, 4347, 4348, 4365, 4366, 4385, 4386, 4407, 4408, 4429, 4430, 4449, 4450, 4655, 4656
 4987, 4988, 5019, 5020, 5051, 5052, 5083, 5084, 5115, 5116, 5147, 5148, 5183, 5184, 5221, 5222
 5255, 5256, 5285, 5286, 5311, 5312, 5335, 5336, 5359, 5360, 5383, 5384, 5405, 5406, 5425, 5426
 5443, 5444, 5459, 5460, 5473, 5474, 5485, 5486, 5495, 5496, 5503, 5504, 5509, 5510, 5513, 5514
*Elset, elset=_PickedSet10, internal
  161,  162,  169,  170,  171,  172,  181,  182,  187,  188,  197,  198,  209,  210,  219,  220
  235,  236,  245,  246,  263,  264,  273,  274,  297,  298,  307,  308,  341,  342,  351,  352
  387,  388,  397,  398,  435,  436,  445,  446,  489,  490,  499,  500,  551,  552,  561,  562
  611,  612,  621,  622,  677,  678,  687,  688,  749,  750,  759,  760,  827,  828,  837,  838
  917,  918,  927,  928, 1005, 1006, 1015, 1016, 1093, 1094, 1103, 1104, 1175, 1176, 1185, 1186
 1257, 1258, 1267, 1268, 1337, 1338, 1347, 1348, 1423, 1424, 1433, 1434, 1503, 1504, 1507, 1508
*Elset, elset=_Surf-1_S2, internal
 3997, 3998, 4021, 4022, 4047, 4048, 4073, 4074, 4097, 4098, 4119, 4120, 4139, 4140, 4157, 4158
 4173, 4174, 4187, 4188, 4199, 4200, 4655, 4656
*Surface, type=ELEMENT, name=Surf-1
_Surf-1_S2, S2
*Elset, elset=_Surf-2_S2, internal
 4279, 4280, 4287, 4288, 4295, 4296, 4305, 4306, 4317, 4318, 4331, 4332, 4347, 4348, 4365, 4366
 4385, 4386, 4407, 4408, 4429, 4430, 4449, 4450
*Surface, type=ELEMENT, name=Surf-2
_Surf-2_S2, S2
*Elset, elset=_Surf-3_S2, internal
 4987, 4988, 5019, 5020, 5051, 5052, 5083, 5084, 5115, 5116, 5147, 5148, 5183, 5184, 5221, 5222
 5255, 5256, 5285, 5286, 5311, 5312, 5335, 5336
*Surface, type=ELEMENT, name=Surf-3
_Surf-3_S2, S2
*Elset, elset=_Surf-4_S2, internal
 5359, 5360, 5383, 5384, 5405, 5406, 5425, 5426, 5443, 5444, 5459, 5460, 5473, 5474, 5485, 5486
 5495, 5496, 5503, 5504, 5509, 5510, 5513, 5514
*Surface, type=ELEMENT, name=Surf-4
_Surf-4_S2, S2
*Elset, elset=_Surf-6_S3, internal
 2852, 2868, 2882, 2894, 2904, 2912, 2918, 2922, 3165, 3187, 3211, 3237, 4385, 4407, 4429, 4449
 5444, 5460, 5474, 5486, 5496, 5504, 5510, 5514
*Elset, elset=_Surf-6_S5, internal
 2768, 2792, 2814, 2834, 3059, 3067, 3075, 3085, 3097, 3111, 3127, 3145, 4279, 4287, 4295, 4305
 4317, 4331, 4347, 4365, 5360, 5384, 5406, 5426
*Surface, type=ELEMENT, name=Surf-6
_Surf-6_S3, S3
_Surf-6_S5, S5
*Elset, elset=_Surf-5_S3, internal
 3265, 3295, 3327, 3361, 3397, 3433, 3469, 3505, 3541, 3577, 3611, 3641, 3998, 4022, 4048, 4074
 4098, 4120, 4140, 4158, 4174, 4188, 4200, 4655
*Elset, elset=_Surf-5_S5, internal
 2396, 2428, 2460, 2492, 2524, 2556, 2592, 2630, 2664, 2694, 2720, 2744, 4988, 5020, 5052, 5084
 5116, 5148, 5184, 5222, 5256, 5286, 5312, 5336
*Surface, type=ELEMENT, name=Surf-5
_Surf-5_S3, S3
_Surf-5_S5, S5
** Section: skin
*Shell Section, elset=_PickedSet10, material=TIMETAL834, offset=SPOS
0.00635, 5
** Section: Min-K
*Solid Section, elset=_PickedSet7, material=Min-K
,
** Section: RENE41
*Solid Section, elset=_PickedSet8, material=RENE41
,
*End Part
**  
**
** ASSEMBLY
**
*Assembly, name=Assembly
**  
*Instance, name=PART-1-1, part=PART-1
*End Instance
**  
*Elset, elset=MIN-K, instance=PART-1-1
 2395, 2396, 2427, 2428, 2459, 2460, 2491, 2492, 2523, 2524, 2555, 2556, 2591, 2592, 2629, 2630
 2663, 2664, 2693, 2694, 2719, 2720, 2743, 2744, 2767, 2768, 2791, 2792, 2813, 2814, 2833, 2834
 2851, 2852, 2867, 2868, 2881, 2882, 2893, 2894, 2903, 2904, 2911, 2912, 2917, 2918, 2921, 2922
 3059, 3060, 3067, 3068, 3075, 3076, 3085, 3086, 3097, 3098, 3111, 3112, 3127, 3128, 3145, 3146
 3165, 3166, 3187, 3188, 3211, 3212, 3237, 3238, 3265, 3266, 3295, 3296, 3327, 3328, 3361, 3362
 3397, 3398, 3433, 3434, 3469, 3470, 3505, 3506, 3541, 3542, 3577, 3578, 3611, 3612, 3641, 3642
*Elset, elset=RENE-41, instance=PART-1-1
 3997, 3998, 4021, 4022, 4047, 4048, 4073, 4074, 4097, 4098, 4119, 4120, 4139, 4140, 4157, 4158
 4173, 4174, 4187, 4188, 4199, 4200, 4279, 4280, 4287, 4288, 4295, 4296, 4305, 4306, 4317, 4318
 4331, 4332, 4347, 4348, 4365, 4366, 4385, 4386, 4407, 4408, 4429, 4430, 4449, 4450, 4655, 4656
 4987, 4988, 5019, 5020, 5051, 5052, 5083, 5084, 5115, 5116, 5147, 5148, 5183, 5184, 5221, 5222
 5255, 5256, 5285, 5286, 5311, 5312, 5335, 5336, 5359, 5360, 5383, 5384, 5405, 5406, 5425, 5426
 5443, 5444, 5459, 5460, 5473, 5474, 5485, 5486, 5495, 5496, 5503, 5504, 5509, 5510, 5513, 5514
*Elset, elset=TIMETAL834, instance=PART-1-1
  161,  162,  169,  170,  171,  172,  181,  182,  187,  188,  197,  198,  209,  210,  219,  220
  235,  236,  245,  246,  263,  264,  273,  274,  297,  298,  307,  308,  341,  342,  351,  352
  387,  388,  397,  398,  435,  436,  445,  446,  489,  490,  499,  500,  551,  552,  561,  562
  611,  612,  621,  622,  677,  678,  687,  688,  749,  750,  759,  760,  827,  828,  837,  838
  917,  918,  927,  928, 1005, 1006, 1015, 1016, 1093, 1094, 1103, 1104, 1175, 1176, 1185, 1186
 1257, 1258, 1267, 1268, 1337, 1338, 1347, 1348, 1423, 1424, 1433, 1434, 1503, 1504, 1507, 1508
*Nset, nset=_PickedSet103, internal, instance=PART-1-1
   15,   20,  200,  226,  232,  237,  238,  239,  258,  262,  268,  276,  278,  285,  288,  290
  297,  304,  320,  321,  334,  338,  346,  351,  358,  380,  386,  400,  405,  415,  420,  426
  443,  498,  557,  558,  564,  627,  699,  727,  801,  802,  866,  953,  959,  961,  964,  968
  973, 1009, 1020, 1202, 1247, 1363, 1374, 1386, 1387, 1744, 1766, 1772, 1781, 1784, 1789, 1796
 1798, 1810, 1811, 1812, 1818, 1824, 1827, 1829, 1832, 1834, 1836, 1846, 1942, 1999, 2117, 2147
 2158, 2162, 2163, 2165, 2624, 2628, 2637, 2654, 2659, 2678, 2705, 2712, 2715, 2719, 2721, 2752
 2754, 2758, 2767, 2770
*End Assembly
** 
** MATERIALS
** 
*Material, name=Min-K
*Conductivity
 0.052,
*Density
256.,
*Specific Heat
858.,
** Temperature unit: Kelvin
*Material, name=RENE41
*Conductivity
18.,
*Density
8240.,
*Specific Heat
541.,
** Temperature Unit: Kelvin
*Material, name=TIMETAL834
*Conductivity
7.,
*Density
4550.,
*Specific Heat
525.,
** 
*Matrix, TYPE=POD, INPUT=..\input\aeroheating_dflux-sub.pod
** PHYSICAL CONSTANTS
** 
*Physical Constants, absolute zero=0., stefan boltzmann=5.67037e-08
** ----------------------------------------------------------------
** 
** STEP: Step-1
** 
*Step, name=Step-1, inc=1000000000
*Heat Transfer, end=PERIOD, ROM=3
1., 10., , ,
** 
** LOADS
** 
** Name: Load-1   Type: Concentrated heat flux
*Cflux
_PickedSet103, 11, 10.
*End Step
