*Heading
** Job name: aeroheating_dflux-surface Model name: aeroheating_dflux-surface
** Generated by: Abaqus/CAE 6.10-1
*Preprint, echo=NO, model=NO, history=NO, contact=NO
**
** PARTS
**
*Part, name=PART-1
*Node
      1,   2.96049929,   2.66666675, 0.0502723977
      2,   2.52985358,   2.33333325, 0.0420400091
      3,  0.674508512,           1., 0.00380000006
      4,   2.07852769,   1.83333337, 0.0374771506
      5,   1.71322858,   1.66666663, 0.0273619089
      6,   1.56596661,   1.66666663, 0.0214714315
      7,   3.32479882,          1.5, 0.0593128651
      8,   1.99995387,  0.166666672, 0.0793014318
      9,   2.68282676,           2., -0.0571523905
     10,   1.93697715,          1.5, -0.0408085771
     11,   1.19957995,           1., -0.024802858
     12,   3.12438321,           3.,  0.047834307
     13,   2.89789367,   2.83333325, 0.0432714447
     14,   4.51666832,  0.166666672, 0.0289671421
     15,    3.6833334,           0., -0.0682666674
     16,  0.638577104,  0.666666687, -0.0113561908
     17,   2.22007823,   2.16666675, 0.0341457203
     18,   2.47418833,          2.5, 0.0353166759
     19,   2.16666675,           0., 0.0904666632
     20,   4.51666832,  0.166666672, -0.0327671431
** ... 2792 like lines cut
*Element, type=DS3
   1, 2589, 2179, 2183
   2, 2183, 2179, 2184
   3, 2185, 2182, 2589
   4, 2589, 2182, 2179
   5, 2179, 2539, 2184
   6, 2184, 2539, 2493
   7, 2589, 2183, 2446
   8, 2446, 2183, 2435
   9, 2185, 2589, 2444
  10, 2444, 2589, 2446
  11, 2180, 2545, 2185
  12, 2185, 2545, 2182
  13, 2182, 2200, 2179
  14, 2179, 2200, 2539
  15, 2445, 2493, 2596
  16, 2596, 2493, 2539
  17, 2446, 2435, 2596
  18, 2596, 2435, 2445
  19, 2444, 2446, 2188
  20, 2188, 2446, 2596
** ... 3410 like lines cut
*Element, type=DC3D6
2125, 2109,  487, 2108,   40, 1866,  169
2126,  489,  487, 2109, 1931, 1866,   40
2127, 2111, 2108,  488,  144,  169,  206
2128, 2109, 2108, 2111,   40,  169,  144
2129,  490,  489, 2109,  143, 1931,   40
2130, 2113,  489,  490,  181, 1931,  143
2131,  447, 2109, 2111, 1872,   40,  144
2132,  490, 2109,  447,  143,   40, 1872
2133, 2106,  488,  547, 1873,  206, 1870
2134, 2111,  488, 2106,  144,  206, 1873
2135, 2112, 2113,  490,  147,  181,  143
2136,  453, 2113, 2112, 1871,  181,  147
2137, 2114,  490,  447, 1868,  143, 1872
2138, 2112,  490, 2114,  147,  143, 1868
2139,  888, 2111, 2106, 1875,  144, 1873
2140,  447, 2111,  888, 1872,  144, 1875
2141,  882,  547,  450, 1877, 1870,  149
2142, 2106,  547,  882, 1873, 1870, 1877
2143,  517,  453, 2112,  161, 1871,  147
2144,  889,  453,  517,   45, 1871,  161
** ... 3436 like lines cut
*Elset, elset=RENE41, generate
 3853,  5580,     1
*Elset, elset=Min-K, generate
 2125,  3852,     1
*Elset, elset=TIMETAL_Skin
    1,    2,    3,    4,    5,    6,    7,    8,    9,   10,   11,   12,   13,   14,   17,   18
   19,   20,   21,   22,   23,   24,   25,   26,   29,   30,   31,   32,   33,   34,   35,   36
   39,   40,   41,   42,   43,   44,   45,   46,   49,   50,   51,   52,   53,   54,   55,   56
   59,   60,   61,   62,   63,   64,   65,   66,   69,   70,   71,   72,   73,   74,   75,   76
   79,   80,   81,   82,   83,   84,   85,   86,   89,   90,   91,   92,   93,   94,   95,   96
   99,  100,  101,  102,  103,  104,  105,  106,  109,  110,  111,  112,  113,  114,  115,  116
  119,  120,  121,  122,  123,  124,  125,  126,  129,  130,  131,  132,  133,  134,  135,  136
  139,  140,  141,  142,  143,  144,  145,  146,  149,  150,  151,  152,  153,  154,  155,  156
  157,  158,  159,  160,  161,  162,  163,  164,  165,  166,  167,  168,  169,  170,  171,  172
  173,  174,  175,  176,  177,  178,  179,  180,  181,  182,  185,  186,  187,  188,  189,  190
  191,  192,  193,  194,  195,  196,  197,  198,  201,  202,  203,  204,  207,  208,  209,  210
  211,  212,  213,  214,  215,  216,  217,  218,  219,  220,  221,  222,  223,  224,  225,  226
  227,  228,  233,  234,  235,  236,  237,  238,  239,  240,  241,  242,  243,  244,  245,  246
  247,  248,  249,  250,  251,  252,  253,  254,  255,  256,  257,  258,  261,  262,  263,  264
  265,  266,  267,  268,  269,  270,  271,  272,  273,  274,  275,  276,  277,  278,  279,  280
  281,  282,  283,  284,  285,  286,  287,  288,  291,  292,  295,  296,  297,  298,  299,  300
  301,  302,  303,  304,  305,  306,  307,  308,  309,  310,  311,  312,  315,  316,  319,  320
  321,  322,  323,  324,  325,  326,  327,  328,  331,  332,  333,  334,  337,  338,  341,  342
  343,  344,  345,  346,  347,  348,  349,  350,  351,  352,  353,  354,  355,  356,  357,  358
  359,  360,  363,  364,  365,  366,  367,  368,  369,  370,  371,  372,  373,  374,  375,  376
** ... 88 like lines cut
*Elset, elset=Stiffener
   15,   16,   27,   28,   37,   38,   47,   48,   57,   58,   67,   68,   77,   78,   87,   88
   97,   98,  107,  108,  117,  118,  127,  128,  137,  138,  147,  148,  183,  184,  199,  200
  205,  206,  229,  230,  231,  232,  259,  260,  289,  290,  293,  294,  313,  314,  317,  318
  329,  330,  335,  336,  339,  340,  361,  362,  377,  378,  381,  382,  385,  386,  409,  410
  425,  426,  433,  434,  459,  460,  475,  476,  485,  486,  487,  488,  509,  510,  513,  514
  519,  520,  535,  536,  547,  548,  549,  550,  575,  576,  581,  582,  605,  606,  607,  608
  637,  638,  643,  644,  665,  666,  667,  668,  671,  672,  675,  676,  705,  706,  711,  712
  733,  734,  735,  736,  739,  740,  743,  744,  747,  748,  775,  776,  781,  782,  787,  788
  809,  810,  813,  814,  817,  818,  825,  826,  855,  856,  857,  858,  863,  864,  869,  870
  889,  890,  893,  894,  899,  900,  903,  904,  913,  914,  915,  916,  947,  948,  955,  956
  961,  962,  979,  980,  989,  990, 1001, 1002, 1003, 1004, 1037, 1038, 1047, 1048, 1053, 1054
 1067, 1068, 1073, 1074, 1087, 1088, 1089, 1090, 1091, 1092, 1121, 1122, 1129, 1130, 1139, 1140
 1153, 1154, 1169, 1170, 1171, 1172, 1173, 1174, 1205, 1206, 1213, 1214, 1223, 1224, 1247, 1248
 1249, 1250, 1251, 1252, 1253, 1254, 1291, 1292, 1299, 1300, 1325, 1326, 1327, 1328, 1329, 1330
 1333, 1334, 1373, 1374, 1381, 1382, 1393, 1394, 1405, 1406, 1407, 1408, 1409, 1410, 1413, 1414
 1417, 1418, 1419, 1420, 1457, 1458, 1463, 1464, 1477, 1478, 1489, 1490, 1491, 1492, 1495, 1496
 1501, 1502, 1533, 1534, 1535, 1536, 1541, 1542, 1553, 1554, 1565, 1566, 1567, 1568, 1571, 1572
 1577, 1578, 1579, 1580, 1607, 1608, 1611, 1612, 1617, 1618, 1627, 1628, 1637, 1638, 1641, 1642
 1643, 1644, 1647, 1648, 1653, 1654, 1681, 1682, 1689, 1690, 1697, 1698, 1703, 1704, 1709, 1710
 1713, 1714, 1717, 1718, 1723, 1724, 1745, 1746, 1759, 1760, 1763, 1764, 1769, 1770, 1775, 1776
** ... 87 like lines cut
*Elset, elset=_PickedSet7, internal, generate
 2125,  3852,     1
*Elset, elset=_PickedSet8, internal, generate
 3853,  5580,     1
*Elset, elset=_PickedSet9, internal
   15,   16,   27,   28,   37,   38,   47,   48,   57,   58,   67,   68,   77,   78,   87,   88
   97,   98,  107,  108,  117,  118,  127,  128,  137,  138,  147,  148,  183,  184,  199,  200
  205,  206,  229,  230,  231,  232,  259,  260,  289,  290,  293,  294,  313,  314,  317,  318
  329,  330,  335,  336,  339,  340,  361,  362,  377,  378,  381,  382,  385,  386,  409,  410
  425,  426,  433,  434,  459,  460,  475,  476,  485,  486,  487,  488,  509,  510,  513,  514
  519,  520,  535,  536,  547,  548,  549,  550,  575,  576,  581,  582,  605,  606,  607,  608
  637,  638,  643,  644,  665,  666,  667,  668,  671,  672,  675,  676,  705,  706,  711,  712
  733,  734,  735,  736,  739,  740,  743,  744,  747,  748,  775,  776,  781,  782,  787,  788
  809,  810,  813,  814,  817,  818,  825,  826,  855,  856,  857,  858,  863,  864,  869,  870
  889,  890,  893,  894,  899,  900,  903,  904,  913,  914,  915,  916,  947,  948,  955,  956
  961,  962,  979,  980,  989,  990, 1001, 1002, 1003, 1004, 1037, 1038, 1047, 1048, 1053, 1054
 1067, 1068, 1073, 1074, 1087, 1088, 1089, 1090, 1091, 1092, 1121, 1122, 1129, 1130, 1139, 1140
 1153, 1154, 1169, 1170, 1171, 1172, 1173, 1174, 1205, 1206, 1213, 1214, 1223, 1224, 1247, 1248
 1249, 1250, 1251, 1252, 1253, 1254, 1291, 1292, 1299, 1300, 1325, 1326, 1327, 1328, 1329, 1330
 1333, 1334, 1373, 1374, 1381, 1382, 1393, 1394, 1405, 1406, 1407, 1408, 1409, 1410, 1413, 1414
 1417, 1418, 1419, 1420, 1457, 1458, 1463, 1464, 1477, 1478, 1489, 1490, 1491, 1492, 1495, 1496
 1501, 1502, 1533, 1534, 1535, 1536, 1541, 1542, 1553, 1554, 1565, 1566, 1567, 1568, 1571, 1572
 1577, 1578, 1579, 1580, 1607, 1608, 1611, 1612, 1617, 1618, 1627, 1628, 1637, 1638, 1641, 1642
 1643, 1644, 1647, 1648, 1653, 1654, 1681, 1682, 1689, 1690, 1697, 1698, 1703, 1704, 1709, 1710
 1713, 1714, 1717, 1718, 1723, 1724, 1745, 1746, 1759, 1760, 1763, 1764, 1769, 1770, 1775, 1776
** ... 87 like lines cut
*Elset, elset=_PickedSet10, internal
    1,    2,    3,    4,    5,    6,    7,    8,    9,   10,   11,   12,   13,   14,   17,   18
   19,   20,   21,   22,   23,   24,   25,   26,   29,   30,   31,   32,   33,   34,   35,   36
   39,   40,   41,   42,   43,   44,   45,   46,   49,   50,   51,   52,   53,   54,   55,   56
   59,   60,   61,   62,   63,   64,   65,   66,   69,   70,   71,   72,   73,   74,   75,   76
   79,   80,   81,   82,   83,   84,   85,   86,   89,   90,   91,   92,   93,   94,   95,   96
   99,  100,  101,  102,  103,  104,  105,  106,  109,  110,  111,  112,  113,  114,  115,  116
  119,  120,  121,  122,  123,  124,  125,  126,  129,  130,  131,  132,  133,  134,  135,  136
  139,  140,  141,  142,  143,  144,  145,  146,  149,  150,  151,  152,  153,  154,  155,  156
  157,  158,  159,  160,  161,  162,  163,  164,  165,  166,  167,  168,  169,  170,  171,  172
  173,  174,  175,  176,  177,  178,  179,  180,  181,  182,  185,  186,  187,  188,  189,  190
  191,  192,  193,  194,  195,  196,  197,  198,  201,  202,  203,  204,  207,  208,  209,  210
  211,  212,  213,  214,  215,  216,  217,  218,  219,  220,  221,  222,  223,  224,  225,  226
  227,  228,  233,  234,  235,  236,  237,  238,  239,  240,  241,  242,  243,  244,  245,  246
  247,  248,  249,  250,  251,  252,  253,  254,  255,  256,  257,  258,  261,  262,  263,  264
  265,  266,  267,  268,  269,  270,  271,  272,  273,  274,  275,  276,  277,  278,  279,  280
  281,  282,  283,  284,  285,  286,  287,  288,  291,  292,  295,  296,  297,  298,  299,  300
  301,  302,  303,  304,  305,  306,  307,  308,  309,  310,  311,  312,  315,  316,  319,  320
  321,  322,  323,  324,  325,  326,  327,  328,  331,  332,  333,  334,  337,  338,  341,  342
  343,  344,  345,  346,  347,  348,  349,  350,  351,  352,  353,  354,  355,  356,  357,  358
  359,  360,  363,  364,  365,  366,  367,  368,  369,  370,  371,  372,  373,  374,  375,  376
** ... 88 like lines cut
*Elset, elset=_Surf-1_S2, internal
 3853, 3854, 3855, 3856, 3857, 3858, 3859, 3860, 3861, 3862, 3863, 3864, 3865, 3866, 3867, 3868
 3869, 3870, 3871, 3872, 3873, 3874, 3875, 3876, 3877, 3878, 3879, 3880, 3881, 3882, 3883, 3884
 3885, 3886, 3887, 3888, 3889, 3890, 3891, 3892, 3893, 3894, 3895, 3896, 3897, 3898, 3899, 3900
 3901, 3902, 3903, 3904, 3905, 3906, 3907, 3908, 3909, 3910, 3911, 3912, 3913, 3914, 3915, 3916
 3917, 3918, 3919, 3920, 3921, 3922, 3923, 3924, 3925, 3926, 3927, 3928, 3929, 3930, 3931, 3932
 3933, 3934, 3935, 3936, 3937, 3938, 3939, 3940, 3941, 3942, 3943, 3944, 3945, 3946, 3947, 3948
 3949, 3950, 3951, 3952, 3953, 3954, 3955, 3956, 3957, 3958, 3959, 3960, 3961, 3962, 3963, 3964
 3965, 3966, 3967, 3968, 3969, 3970, 3971, 3972, 3973, 3974, 3975, 3976, 3977, 3978, 3979, 3980
 3981, 3982, 3983, 3984, 3985, 3986, 3987, 3988, 3989, 3990, 3991, 3992, 3993, 3994, 3995, 3996
 3997, 3998, 3999, 4000, 4001, 4002, 4003, 4004, 4005, 4006, 4007, 4008, 4009, 4010, 4011, 4012
 4013, 4014, 4015, 4016, 4017, 4018, 4019, 4020, 4021, 4022, 4023, 4024, 4025, 4026, 4027, 4028
 4029, 4030, 4031, 4032, 4033, 4034, 4035, 4036, 4037, 4038, 4039, 4040, 4041, 4042, 4043, 4044
 4045, 4046, 4047, 4048, 4049, 4050, 4051, 4052, 4053, 4054, 4055, 4056, 4057, 4058, 4059, 4060
 4061, 4062, 4063, 4064, 4065, 4066, 4067, 4068, 4069, 4070, 4071, 4072, 4073, 4074, 4075, 4076
 4077, 4078, 4079, 4080, 4081, 4082, 4083, 4084, 4085, 4086, 4087, 4088, 4089, 4090, 4091, 4092
 4093, 4094, 4095, 4096, 4097, 4098, 4099, 4100, 4101, 4102, 4103, 4104, 4105, 4106, 4107, 4108
 4109, 4110, 4111, 4112, 4113, 4114, 4115, 4116, 4117, 4118, 4119, 4120, 4121, 4122, 4123, 4124
 4125, 4126, 4127, 4128, 4129, 4130, 4131, 4132, 4133, 4134, 4135, 4136, 4137, 4138, 4139, 4140
 4141, 4142, 4143, 4144, 4145, 4146, 4147, 4148, 4149, 4150, 4151, 4152, 4153, 4154, 4155, 4156
 4157, 4158, 4159, 4160, 4161, 4162, 4163, 4164, 4165, 4166, 4167, 4168, 4169, 4170, 4171, 4172
** ... 7 like lines cut
*Surface, type=ELEMENT, name=Surf-1
_Surf-1_S2, S2
*Elset, elset=_Surf-2_S2, internal, generate
 4209,  4640,     1
*Surface, type=ELEMENT, name=Surf-2
_Surf-2_S2, S2
*Elset, elset=_Surf-3_S2, internal
 4717, 4718, 4719, 4720, 4721, 4722, 4723, 4724, 4725, 4726, 4727, 4728, 4729, 4730, 4731, 4732
 4733, 4734, 4735, 4736, 4737, 4738, 4739, 4740, 4741, 4742, 4743, 4744, 4745, 4746, 4747, 4748
 4749, 4750, 4751, 4752, 4753, 4754, 4755, 4756, 4757, 4758, 4759, 4760, 4761, 4762, 4763, 4764
 4765, 4766, 4767, 4768, 4769, 4770, 4771, 4772, 4773, 4774, 4775, 4776, 4777, 4778, 4779, 4780
 4781, 4782, 4783, 4784, 4785, 4786, 4787, 4788, 4789, 4790, 4791, 4792, 4793, 4794, 4795, 4796
 4797, 4798, 4799, 4800, 4801, 4802, 4803, 4804, 4805, 4806, 4807, 4808, 4809, 4810, 4811, 4812
 4813, 4814, 4815, 4816, 4817, 4818, 4819, 4820, 4821, 4822, 4823, 4824, 4825, 4826, 4827, 4828
 4829, 4830, 4831, 4832, 4833, 4834, 4835, 4836, 4837, 4838, 4839, 4840, 4841, 4842, 4843, 4844
 4845, 4846, 4847, 4848, 4849, 4850, 4851, 4852, 4853, 4854, 4855, 4856, 4857, 4858, 4859, 4860
 4861, 4862, 4863, 4864, 4865, 4866, 4867, 4868, 4869, 4870, 4871, 4872, 4873, 4874, 4875, 4876
 4877, 4878, 4879, 4880, 4881, 4882, 4883, 4884, 4885, 4886, 4887, 4888, 4889, 4890, 4891, 4892
 4893, 4894, 4895, 4896, 4897, 4898, 4899, 4900, 4901, 4902, 4903, 4904, 4905, 4906, 4907, 4908
 4909, 4910, 4911, 4912, 4913, 4914, 4915, 4916, 4921, 4922, 4923, 4924, 4925, 4926, 4927, 4928
 4929, 4930, 4931, 4932, 4933, 4934, 4935, 4936, 4937, 4938, 4939, 4940, 4941, 4942, 4943, 4944
 4945, 4946, 4955, 4956, 4957, 4958, 4959, 4960, 4961, 4962, 4963, 4964, 4965, 4966, 4967, 4968
 4969, 4970, 4971, 4972, 4973, 4974, 4975, 4976, 4985, 4986, 4987, 4988, 4989, 4990, 4991, 4992
 4993, 4994, 4995, 4996, 4997, 4998, 4999, 5000, 5001, 5002, 5003, 5004, 5005, 5006, 5015, 5016
 5017, 5018, 5019, 5020, 5021, 5022, 5023, 5024, 5025, 5026, 5027, 5028, 5029, 5030, 5031, 5032
 5033, 5034, 5035, 5036, 5037, 5038, 5049, 5050, 5051, 5052, 5053, 5054, 5055, 5056, 5057, 5058
 5059, 5060, 5061, 5062, 5063, 5064, 5065, 5066, 5067, 5068, 5081, 5082, 5083, 5084, 5085, 5086
** ... 7 like lines cut
*Surface, type=ELEMENT, name=Surf-3
_Surf-3_S2, S2
*Elset, elset=_Surf-4_S2, internal
 4917, 4918, 4919, 4920, 4947, 4948, 4949, 4950, 4951, 4952, 4953, 4954, 4977, 4978, 4979, 4980
 4981, 4982, 4983, 4984, 5007, 5008, 5009, 5010, 5011, 5012, 5013, 5014, 5039, 5040, 5041, 5042
 5043, 5044, 5045, 5046, 5047, 5048, 5069, 5070, 5071, 5072, 5073, 5074, 5075, 5076, 5077, 5078
 5079, 5080, 5099, 5100, 5101, 5102, 5103, 5104, 5105, 5106, 5107, 5108, 5109, 5110, 5111, 5112
 5129, 5130, 5131, 5132, 5133, 5134, 5135, 5136, 5137, 5138, 5139, 5140, 5141, 5142, 5143, 5144
 5161, 5162, 5163, 5164, 5165, 5166, 5167, 5168, 5169, 5170, 5171, 5172, 5173, 5174, 5175, 5176
 5177, 5178, 5179, 5180, 5197, 5198, 5199, 5200, 5201, 5202, 5203, 5204, 5205, 5206, 5207, 5208
 5209, 5210, 5211, 5212, 5213, 5214, 5215, 5216, 5217, 5218, 5233, 5234, 5235, 5236, 5237, 5238
 5239, 5240, 5241, 5242, 5243, 5244, 5245, 5246, 5247, 5248, 5249, 5250, 5251, 5252, 5265, 5266
 5267, 5268, 5269, 5270, 5271, 5272, 5273, 5274, 5275, 5276, 5277, 5278, 5279, 5280, 5281, 5282
 5293, 5294, 5295, 5296, 5297, 5298, 5299, 5300, 5301, 5302, 5303, 5304, 5305, 5306, 5307, 5308
 5317, 5318, 5319, 5320, 5321, 5322, 5323, 5324, 5325, 5326, 5327, 5328, 5329, 5330, 5331, 5332
 5339, 5340, 5341, 5342, 5343, 5344, 5345, 5346, 5347, 5348, 5349, 5350, 5351, 5352, 5353, 5354
 5355, 5356, 5359, 5360, 5361, 5362, 5363, 5364, 5365, 5366, 5367, 5368, 5369, 5370, 5371, 5372
 5373, 5374, 5375, 5376, 5377, 5378, 5379, 5380, 5381, 5382, 5383, 5384, 5385, 5386, 5387, 5388
 5389, 5390, 5391, 5392, 5393, 5394, 5395, 5396, 5397, 5398, 5399, 5400, 5401, 5402, 5403, 5404
 5405, 5406, 5407, 5408, 5409, 5410, 5411, 5412, 5413, 5414, 5415, 5416, 5417, 5418, 5419, 5420
 5421, 5422, 5423, 5424, 5425, 5426, 5427, 5428, 5429, 5430, 5431, 5432, 5433, 5434, 5435, 5436
 5437, 5438, 5439, 5440, 5441, 5442, 5443, 5444, 5445, 5446, 5447, 5448, 5449, 5450, 5451, 5452
 5453, 5454, 5455, 5456, 5457, 5458, 5459, 5460, 5461, 5462, 5463, 5464, 5465, 5466, 5467, 5468
** ... 7 like lines cut
*Surface, type=ELEMENT, name=Surf-4
_Surf-4_S2, S2
*Elset, elset=_Surf-6_SNEG, internal
 6161, 6162, 6163, 6164, 6165, 6166, 6167, 6168, 6169, 6170, 6171, 6172, 6698, 6699, 6700, 6701
 6702, 6703, 6704, 6705, 6706, 6707, 6708
*Elset, elset=_Surf-6_S3, internal
 2852, 2868, 2882, 2894, 2904, 2912, 2918, 2922, 3165, 3187, 3211, 3237, 4385, 4407, 4429, 4449
 5444, 5460, 5474, 5486, 5496, 5504, 5510, 5514
*Elset, elset=_Surf-6_S5, internal
 2768, 2792, 2814, 2834, 3059, 3067, 3075, 3085, 3097, 3111, 3127, 3145, 4279, 4287, 4295, 4305
 4317, 4331, 4347, 4365, 5360, 5384, 5406, 5426
*Surface, type=ELEMENT, name=Surf-6
_Surf-6_SNEG, SNEG
_Surf-6_S3, S3
_Surf-6_S5, S5
*Elset, elset=_Surf-5_SNEG, internal
 6159, 6160, 6173, 6174, 6175, 6176, 6177, 6178, 6179, 6180, 6181, 6182, 6689, 6690, 6691, 6692
 6693, 6694, 6695, 6696, 6697, 6709, 6710
*Elset, elset=_Surf-5_S3, internal
 3265, 3295, 3327, 3361, 3397, 3433, 3469, 3505, 3541, 3577, 3611, 3641, 3998, 4022, 4048, 4074
 4098, 4120, 4140, 4158, 4174, 4188, 4200, 4655
*Elset, elset=_Surf-5_S5, internal
 2396, 2428, 2460, 2492, 2524, 2556, 2592, 2630, 2664, 2694, 2720, 2744, 4988, 5020, 5052, 5084
 5116, 5148, 5184, 5222, 5256, 5286, 5312, 5336
*Surface, type=ELEMENT, name=Surf-5
_Surf-5_SNEG, SNEG
_Surf-5_S3, S3
_Surf-5_S5, S5
*Elset, elset=_Surf-7_SPOS, internal
 6010, 6011, 6012, 6013, 6014, 6015, 6016, 6017, 6018, 6019, 6020, 6849, 6850, 6851, 6852, 6853
 6854, 6855, 6856, 6857, 6858, 6859, 6860
*Elset, elset=_Surf-7_S4, internal
 2325, 2327, 2357, 2359, 2990, 2994, 3390, 3426, 3462, 3498, 3534, 3570, 4210, 4214, 4550, 4568
 4584, 4598, 4610, 4620, 4917, 4919, 4949, 4951
*Elset, elset=_Surf-7_S5, internal
 2451, 2483, 2515, 2547, 2583, 2623, 2983, 2987, 3606, 3640, 3670, 3696, 4628, 4634, 4638, 4640
 5043, 5075, 5107, 5139, 5175, 5215, 5575, 5579
*Surface, type=ELEMENT, name=Surf-7
_Surf-7_SPOS, SPOS
_Surf-7_S4, S4
_Surf-7_S5, S5
*Elset, elset=_Surf-8_SPOS, internal
 5999, 6000, 6001, 6002, 6003, 6004, 6005, 6006, 6007, 6008, 6009, 6861, 6862, 6863, 6864, 6865
 6866, 6867, 6868, 6869, 6870, 6871, 6872
*Elset, elset=_Surf-8_S4, internal
 2125, 2127, 2133, 2141, 2151, 2163, 2177, 2193, 2213, 2219, 2239, 2241, 4717, 4719, 4725, 4733
 4743, 4755, 4769, 4785, 4805, 4811, 4831, 4833
*Elset, elset=_Surf-8_S5, internal
 3720, 3742, 3762, 3780, 3796, 3810, 3822, 3832, 3840, 3846, 3850, 3852, 3865, 3883, 3903, 3925
 4660, 4674, 4686, 4696, 4704, 4710, 4714, 4716
*Surface, type=ELEMENT, name=Surf-8
_Surf-8_SPOS, SPOS
_Surf-8_S4, S4
_Surf-8_S5, S5
** Section: skin
*Shell Section, elset=_PickedSet10, material=TIMETAL834, offset=SPOS
0.00635, 5
** Section: stiffener
*Shell Section, elset=_PickedSet9, material=TIMETAL834
0.00254, 5
** Section: Min-K
*Solid Section, elset=_PickedSet7, material=Min-K
,
** Section: RENE41
*Solid Section, elset=_PickedSet8, material=RENE41
,
*End Part
**  
**
** ASSEMBLY
**
*Assembly, name=Assembly
**  
*Instance, name=PART-1-1, part=PART-1
*End Instance
**  
*Nset, nset=Wire-1-Set-1, instance=PART-1-1
    3,   21,   38,   43,   45,   50,   79,   92,   93,  103,  107,  116,  119,  128,  133,  181
  198,  310,  453,  487,  489,  578,  579,  607,  660,  862,  889,  904,  918,  935,  938, 1098
 1100, 1118, 1146, 1166, 1405, 1519, 1607, 1621, 1633, 1716, 1866, 1871, 1884, 1929, 1931, 2082
 2083, 2093, 2113, 2149, 2153, 2212, 2240, 2262, 2340
*Nset, nset=Wire-2-Set-1, instance=PART-1-1
   16,   28,   33,   40,   96,   99,  114,  124,  143,  147,  161,  169,  490,  517,  544,  674
  687,  890,  891,  898,  900,  902,  912,  933,  936,  947,  966, 1059, 1061, 1116, 1122, 1140
 1165, 1175, 1222, 1295, 1304, 1389, 1404, 1406, 1425, 1518, 1520, 1536, 1613, 1615, 1616, 1625
 1663, 1683, 1688, 1690, 1729, 1880, 1883, 1889, 1891, 1897, 1909, 1916, 1943, 2062, 2063, 2081
 2105, 2108, 2109, 2110, 2112, 2116, 2164, 2303, 2376, 2381, 2416, 2552
*Nset, nset=Wire-3-Set-1, instance=PART-1-1
   22,   46,   90,  108,  127,  131,  134,  144,  182,  206,  216,  249,  250,  447,  452,  488
  507,  515,  543,  577,  583,  609,  613,  635,  659,  712,  883,  886,  895,  903,  908,  911
  920,  932,  941,  951, 1115, 1129, 1143, 1148, 1151, 1154, 1176, 1403, 1407, 1423, 1424, 1426
 1442, 1503, 1517, 1521, 1537, 1556, 1642, 1651, 1652, 1656, 1680, 1700, 1706, 1722, 1868, 1872
 1885, 1899, 1906, 1913, 1945, 2038, 2040, 2111, 2114, 2273, 2362, 2553
*Nset, nset=Wire-4-Set-1, instance=PART-1-1
    6,   11,   23,   34,   41,   64,   70,   72,   81,  104,  105,  137,  547,  597,  611,  665
  671,  694,  698,  711,  887,  888,  893,  901,  909,  917,  922,  925,  934,  948, 1097, 1107
 1120, 1157, 1168, 1274, 1284, 1402, 1408, 1422, 1427, 1441, 1443, 1444, 1461, 1504, 1535, 1538
 1555, 1573, 1626, 1628, 1634, 1646, 1675, 1678, 1693, 1711, 1717, 1863, 1870, 1873, 1875, 1882
 1886, 1887, 1890, 1900, 1908, 2052, 2106, 2115, 2239, 2410, 2600, 2773
*Nset, nset=Wire-5-Set-1, instance=PART-1-1
    5,   42,   47,   59,   77,  110,  118,  149,  450,  598,  638,  662,  721,  724,  882,  884
  892,  896,  910,  916,  926,  939,  945, 1060, 1094, 1104, 1127, 1128, 1141, 1158, 1178, 1252
 1262, 1293, 1316, 1390, 1440, 1445, 1460, 1462, 1480, 1516, 1522, 1534, 1539, 1554, 1557, 1572
 1574, 1591, 1612, 1614, 1627, 1631, 1640, 1657, 1682, 1684, 1720, 1728, 1877, 1881, 1895, 1918
 1920, 1928, 1932, 1949, 2029, 2033, 2036, 2072, 2076, 2218, 2243, 2364
*Nset, nset=Wire-6-Set-1, instance=PART-1-1
   36,   37,   52,   54,   63,   71,   83,   85,   88,   98,  102,  117,  120,  123,  130,  132
  163,  689,  696,  740,  749,  885,  894,  897,  913,  914,  915,  927,  944, 1099, 1112, 1113
 1119, 1145, 1160, 1169, 1265, 1401, 1409, 1421, 1428, 1459, 1463, 1481, 1500, 1505, 1553, 1558
 1571, 1575, 1589, 1590, 1592, 1609, 1619, 1622, 1644, 1645, 1674, 1679, 1694, 1699, 1704, 1715
 1888, 1901, 1946, 2003, 2022, 2035, 2039, 2057, 2084, 2221, 2224, 2242
*Nset, nset=Wire-7-Set-1, instance=PART-1-1
    4,   10,   17,   55,   57,   65,  100,  111,  129,  140,  472,  575,  637,  668,  685,  717
  729,  741,  867,  899,  905,  906,  923,  931,  946, 1103, 1130, 1136, 1153, 1156, 1179, 1275
 1296, 1391, 1439, 1446, 1464, 1478, 1479, 1482, 1499, 1501, 1515, 1523, 1533, 1540, 1570, 1593
 1601, 1606, 1608, 1620, 1647, 1650, 1658, 1676, 1692, 1701, 1714, 1721, 1876, 1878, 1894, 1911
 1930, 1935, 1993, 2017, 2018, 2024, 2071, 2313, 2347, 2392, 2393, 2602
*Nset, nset=Wire-8-Set-1, instance=PART-1-1
   18,   32,   66,   94,   95,  106,  112,  213,  580,  610,  664,  688,  700,  720,  734,  738
  769,  873,  907,  924,  929,  940, 1102, 1106, 1123, 1147, 1159, 1249, 1263, 1400, 1410, 1420
 1429, 1458, 1483, 1498, 1502, 1506, 1552, 1559, 1576, 1588, 1605, 1610, 1641, 1664, 1666, 1672
 1686, 1689, 1705, 1709, 1710, 1725, 1726, 1879, 1892, 1896, 1922, 1933, 1953, 1984, 1996, 2001
 2004, 2053, 2248, 2265, 2304, 2308, 2330, 2341, 2402, 2501, 2647, 2748
*Nset, nset=Wire-9-Set-1, instance=PART-1-1
    2,   31,   53,   73,   80,  101,  109,  126,  135,  145,  167,  493,  533,  623,  634,  640
  715,  760,  919,  921,  942,  969, 1019, 1101, 1111, 1171, 1294, 1297, 1317, 1392, 1447, 1465
 1477, 1497, 1514, 1524, 1532, 1541, 1551, 1569, 1594, 1603, 1611, 1618, 1623, 1629, 1635, 1639
 1662, 1677, 1703, 1707, 1858, 1904, 1910, 1923, 1950, 1977, 1978, 1991, 1994, 2019, 2023, 2051
 2272, 2280, 2295, 2296, 2300, 2306, 2320, 2321, 2323, 2344, 2349, 2351
*Nset, nset=Wire-10-Set-1, instance=PART-1-1
    8,   44,   61,   91,  122,  125,  159,  196,  197,  224,  697,  710,  713,  714,  739,  759
  779,  937,  949, 1109, 1124, 1162, 1163, 1180, 1307, 1393, 1399, 1419, 1430, 1438, 1457, 1484
 1525, 1560, 1577, 1587, 1604, 1648, 1665, 1670, 1685, 1687, 1695, 1708, 1727, 1730, 1905, 1907
 1919, 1925, 1936, 1969, 1985, 2016, 2041, 2042, 2046, 2047, 2074, 2148, 2169, 2222, 2247, 2249
 2257, 2271, 2299, 2301, 2343, 2354, 2391, 2411, 2472, 2521, 2578, 2750
*Nset, nset=Wire-11-Set-1, instance=PART-1-1
    9,   13,   19,   27,   60,   82,   86,  113,  154,  270,  615,  642,  692,  794,  808,  943
  952, 1065, 1068, 1086, 1132, 1134, 1137, 1142, 1172, 1276, 1279, 1305, 1381, 1411, 1466, 1476
 1496, 1507, 1513, 1531, 1542, 1550, 1568, 1595, 1643, 1649, 1653, 1698, 1702, 1712, 1723, 1732
 1867, 1903, 1921, 1938, 1975, 1976, 1982, 2002, 2005, 2014, 2170, 2214, 2259, 2264, 2276, 2294
 2322, 2360, 2361, 2406, 2415, 2457, 2468, 2499, 2533, 2541, 2606, 2700
*Nset, nset=Wire-12-Set-1, instance=PART-1-1
    1,   24,   51,   89,  115,  121,  146,  195,  269,  313,  314,  456,  555,  608,  614,  643
  746,  812,  928,  930,  950, 1038, 1045, 1070, 1105, 1108, 1138, 1250, 1277, 1309, 1398, 1418
 1437, 1456, 1485, 1586, 1617, 1654, 1660, 1661, 1673, 1681, 1691, 1697, 1713, 1718, 1733, 1874
 1893, 1898, 1902, 1912, 1915, 1917, 1968, 1983, 1992, 2223, 2267, 2269, 2311, 2353, 2358, 2366
 2437, 2438, 2477, 2519, 2526, 2554, 2559, 2569, 2571, 2609, 2621, 2645
*Nset, nset=Wire-13-Set-1, instance=PART-1-1
   12,   62,   69,   74,   75,  153,  155,  236,  273,  282,  467,  546,  644,  663,  670,  693
  823,  830,  831, 1024, 1027, 1066, 1125, 1177, 1253, 1306, 1412, 1417, 1431, 1448, 1475, 1495
 1508, 1512, 1549, 1567, 1578, 1596, 1624, 1632, 1638, 1655, 1696, 1869, 1914, 1926, 1951, 1974
 1981, 1990, 1998, 2011, 2045, 2048, 2166, 2226, 2252, 2256, 2261, 2277, 2281, 2298, 2317, 2319
 2346, 2367, 2368, 2373, 2398, 2427, 2479, 2505, 2534, 2535, 2557, 2580
*Nset, nset=Wire-14-Set-1, instance=PART-1-1
   56,   68,   87,  192,  561,  586,  617,  636,  686,  691,  719,  736,  764,  811,  982,  983
 1031, 1039, 1041, 1046, 1048, 1082, 1088, 1110, 1114, 1285, 1394, 1416, 1511, 1526, 1543, 1548
 1561, 1566, 1579, 1585, 1597, 1600, 1630, 1719, 1731, 1941, 1952, 1961, 1967, 1980, 1989, 2010
 2021, 2027, 2054, 2055, 2061, 2225, 2227, 2254, 2278, 2282, 2325, 2356, 2363, 2401, 2403, 2404
 2455, 2459, 2461, 2474, 2502, 2522, 2556, 2568, 2574, 2591, 2610, 2623
*Nset, nset=Wire-15-Set-1, instance=PART-1-1
   26,  199,  247,  271,  438,  576,  587,  612,  621,  667,  722,  725,  784,  799,  822,  829
  986, 1025, 1044, 1071, 1084, 1089, 1090, 1117, 1121, 1126, 1133, 1144, 1286, 1396, 1397, 1435
 1436, 1454, 1455, 1467, 1474, 1486, 1494, 1529, 1530, 1637, 1659, 1924, 1954, 1960, 1988, 2030
 2066, 2068, 2078, 2215, 2231, 2241, 2263, 2268, 2285, 2287, 2348, 2355, 2372, 2377, 2378, 2417
 2422, 2428, 2478, 2482, 2506, 2530, 2537, 2584, 2604, 2618, 2622, 2743
*Nset, nset=Wire-16-Set-1, instance=PART-1-1
    7,   29,   39,  152,  246,  277,  326,  549,  582,  588,  606,  616,  661,  678,  716,  762
  765,  974, 1049, 1074, 1087, 1131, 1164, 1251, 1266, 1287, 1308, 1414, 1415, 1434, 1472, 1473
 1492, 1509, 1510, 1547, 1564, 1565, 1599, 1636, 1669, 1724, 1927, 1939, 1958, 2006, 2026, 2044
 2060, 2064, 2075, 2079, 2101, 2233, 2266, 2274, 2326, 2327, 2329, 2359, 2396, 2408, 2414, 2430
 2431, 2454, 2503, 2512, 2517, 2518, 2528, 2551, 2563, 2595, 2612, 2614
*Nset, nset=Wire-17-Set-1, instance=PART-1-1
   58,   76,   97,  177,  328,  329,  550,  554,  584,  590,  633,  744,  763,  798,  994, 1023
 1050, 1055, 1064, 1069, 1073, 1091, 1155, 1235, 1264, 1395, 1452, 1453, 1493, 1527, 1528, 1545
 1546, 1583, 1584, 1602, 1966, 1971, 1973, 2015, 2020, 2028, 2032, 2056, 2073, 2080, 2087, 2092
 2160, 2228, 2238, 2244, 2250, 2253, 2288, 2318, 2333, 2335, 2374, 2383, 2394, 2405, 2424, 2425
 2460, 2464, 2484, 2504, 2508, 2529, 2536, 2564, 2579, 2582, 2585, 2592
*Nset, nset=Wire-18-Set-1, instance=PART-1-1
   78,   84,  150,  170,  220,  221,  244,  267,  296,  300,  387,  519,  521,  551,  618,  639
  684,  735,  782,  783,  810,  821,  838,  991, 1042, 1058, 1067, 1161, 1246, 1413, 1432, 1433
 1449, 1468, 1471, 1487, 1491, 1563, 1956, 1979, 2007, 2009, 2031, 2034, 2065, 2069, 2097, 2229
 2235, 2258, 2290, 2292, 2328, 2332, 2339, 2342, 2365, 2386, 2387, 2400, 2418, 2419, 2432, 2452
 2465, 2470, 2485, 2509, 2540, 2558, 2562, 2570, 2575, 2581, 2583, 2619
*Nset, nset=Wire-19-Set-1, instance=PART-1-1
  176,  178,  193,  219,  222,  245,  299,  462,  520,  522,  545,  552,  596,  619,  645,  658
  690,  695,  742,  820,  840, 1047, 1076, 1083, 1085, 1135, 1139, 1149, 1150, 1173, 1451, 1470
 1490, 1544, 1562, 1582, 1598, 1959, 1972, 1987, 2008, 2077, 2088, 2098, 2102, 2230, 2237, 2255
 2275, 2293, 2307, 2331, 2336, 2338, 2345, 2390, 2397, 2399, 2413, 2423, 2433, 2434, 2458, 2462
 2473, 2515, 2520, 2524, 2525, 2561, 2572, 2576, 2586, 2603, 2615, 2620
*Nset, nset=Wire-20-Set-1, instance=PART-1-1
  139,  175,  189,  194,  240,  293,  499,  514,  516,  641,  666,  669,  733,  781,  809,  836
  987, 1026, 1081, 1092, 1093, 1095, 1096, 1152, 1258, 1259, 1278, 1450, 1580, 1581, 1667, 1668
 1955, 1957, 1965, 1986, 1997, 2058, 2091, 2096, 2099, 2104, 2107, 2173, 2245, 2270, 2283, 2289
 2291, 2297, 2309, 2315, 2370, 2371, 2379, 2384, 2389, 2412, 2420, 2421, 2426, 2429, 2439, 2456
 2466, 2481, 2492, 2507, 2513, 2514, 2531, 2587, 2588, 2608, 2611, 2616
*Nset, nset=Wire-21-Set-1, instance=PART-1-1
   48,   67,  138,  151,  156,  172,  217,  243,  248,  331,  357,  484,  486,  553,  581,  585
  718,  728,  743,  761,  795,  977, 1030, 1033, 1040, 1072, 1170, 1174, 1469, 1489, 1671, 1963
 1964, 1970, 2043, 2067, 2085, 2089, 2095, 2103, 2172, 2178, 2181, 2232, 2234, 2236, 2260, 2286
 2302, 2312, 2314, 2324, 2337, 2352, 2375, 2388, 2395, 2407, 2436, 2440, 2441, 2476, 2480, 2483
 2486, 2510, 2523, 2532, 2538, 2565, 2566, 2573, 2577, 2607, 2617, 2699
*Nset, nset=Wire-22-Set-1, instance=PART-1-1
   14,   49,  141,  148,  157,  173,  174,  265,  361,  482,  518,  548,  567,  620,  702,  723
  780,  796,  797,  816,  817, 1017, 1034, 1051, 1054, 1056, 1057, 1078, 1167, 1245, 1488, 1962
 1995, 2059, 2070, 2086, 2090, 2094, 2100, 2174, 2175, 2176, 2207, 2246, 2251, 2279, 2284, 2305
 2310, 2316, 2334, 2350, 2357, 2369, 2380, 2382, 2385, 2409, 2463, 2467, 2469, 2471, 2475, 2487
 2491, 2511, 2516, 2527, 2543, 2555, 2560, 2567, 2593, 2594, 2605, 2613
*Nset, nset=Wire-23-Set-1, instance=PART-1-1
  136,  142,  218,  272,  322,  475,  704,  737,  755,  756,  757,  773,  774,  785,  786,  789
  790,  815,  847,  848,  852,  853,  857,  858,  880, 1016, 1018, 1032, 1199, 1200, 1201, 1212
 1216, 1219, 1236, 1238, 1241, 1243, 1244, 1254, 1256, 1268, 1269, 1324, 1350, 2177, 2187, 2188
 2190, 2191, 2195, 2198, 2200, 2202, 2204, 2209, 2211, 2442, 2443, 2445, 2447, 2451, 2453, 2489
 2490, 2493, 2495, 2497, 2498, 2539, 2542, 2544, 2546, 2548, 2596, 2598
*Nset, nset=Wire-24-Set-1, instance=PART-1-1
  298,  301,  355,  360,  538,  707,  708,  709,  731,  745,  750,  752,  758,  770,  775,  776
  778,  791,  792,  807,  844,  846,  849,  851,  854,  856,  859,  861, 1015, 1036, 1075, 1077
 1080, 1215, 1217, 1218, 1224, 1228, 1230, 1232, 1237, 1240, 1242, 1271, 1314, 1333, 2171, 2179
 2182, 2184, 2189, 2192, 2193, 2194, 2203, 2205, 2208, 2210, 2216, 2217, 2435, 2444, 2446, 2448
 2449, 2450, 2488, 2494, 2496, 2500, 2545, 2547, 2549, 2550, 2597, 2601
*Nset, nset=Wire-25-Set-1, instance=PART-1-1
  171,  362,  569,  601,  706,  730,  732,  751,  753,  754,  767,  768,  771,  772,  777,  787
  788,  800,  818,  845,  850,  855,  860, 1029, 1037, 1079, 1198, 1213, 1214, 1220, 1223, 1225
 1226, 1227, 1229, 1231, 1233, 1239, 1255, 1257, 1267, 1270, 2180, 2183, 2185, 2186, 2196, 2197
 2199, 2201, 2206, 2213, 2219, 2220, 2589, 2590, 2599
*Elset, elset=MIN-K, instance=PART-1-1, generate
 2125,  3852,     1
*Elset, elset=RENE-41, instance=PART-1-1, generate
 3853,  5580,     1
*Elset, elset=SURFACE, instance=PART-1-1, generate
 6873,  7304,     1
*Elset, elset=TIMETAL834, instance=PART-1-1, generate
    1,  2124,     1
*Elset, elset=TIMETAL834_STIIFFENER, instance=PART-1-1, generate
 5999,  6872,     1
*Nset, nset=_PickedSet22, internal, instance=PART-1-1
   15,   19,   21,   85,  107,  136,  152,  200,  220,  238,  258,  268,  276,  290,  297,  304
  321,  334,  338,  355,  405,  443,  484,  533,  544,  550,  557,  564,  601,  613,  627,  665
  685,  699,  724,  727,  760,  794,  802,  817,  829,  953,  959,  973, 1009, 1016, 1020, 1030
 1054, 1064, 1079, 1080, 1090, 1095, 1115, 1116, 1128, 1147, 1149, 1202, 1284, 1387, 1403, 1463
 1479, 1482, 1498, 1521, 1535, 1538, 1554, 1557, 1571, 1672, 1744, 1772, 1784, 1810, 1812, 1827
 1832, 1834, 1942, 1955, 1956, 1985, 2004, 2018, 2022, 2079, 2102, 2158, 2171, 2177, 2214, 2220
 2237, 2240, 2257, 2259, 2288, 2290, 2299, 2306, 2314, 2326, 2344, 2370, 2376, 2381, 2386, 2428
 2476, 2482, 2487, 2500, 2503, 2515, 2542, 2585, 2594, 2616, 2628, 2659, 2705, 2712, 2750, 2752
 2754, 2770
*Nset, nset=_PickedSet23, internal, instance=PART-1-1
   24,  192,  236,  273,  288,  320,  351,  395,  555,  586,  614,  643,  830,  831, 1024, 1031
 1045, 1046, 1070, 1386, 1781, 1789, 1796, 1803, 1805, 1961, 2045, 2054, 2125, 2277, 2368, 2373
 2455, 2461, 2474, 2477, 2502, 2519, 2534, 2535, 2554, 2569, 2574, 2580, 2609, 2610, 2621, 2624
 2651, 2654, 2704, 2715, 2758, 2767
*Nset, nset=_PickedSet95, internal, instance=PART-1-1, generate
    1,  2812,     1
*Elset, elset=__PickedSurf96_S2, internal, instance=PART-1-1
 3853, 3854, 3855, 3856, 3857, 3858, 3859, 3860, 3861, 3862, 3863, 3864, 3865, 3866, 3867, 3868
 3869, 3870, 3871, 3872, 3873, 3874, 3875, 3876, 3877, 3878, 3879, 3880, 3881, 3882, 3883, 3884
 3885, 3886, 3887, 3888, 3889, 3890, 3891, 3892, 3893, 3894, 3895, 3896, 3897, 3898, 3899, 3900
 3901, 3902, 3903, 3904, 3905, 3906, 3907, 3908, 3909, 3910, 3911, 3912, 3913, 3914, 3915, 3916
 3917, 3918, 3919, 3920, 3921, 3922, 3923, 3924, 3925, 3926, 3927, 3928, 3929, 3930, 3931, 3932
 3933, 3934, 3935, 3936, 3937, 3938, 3939, 3940, 3941, 3942, 3943, 3944, 3945, 3946, 3947, 3948
 3949, 3950, 3951, 3952, 3953, 3954, 3955, 3956, 3957, 3958, 3959, 3960, 3961, 3962, 3963, 3964
 3965, 3966, 3967, 3968, 3969, 3970, 3971, 3972, 3973, 3974, 3975, 3976, 3977, 3978, 3979, 3980
 3981, 3982, 3983, 3984, 3985, 3986, 3987, 3988, 3989, 3990, 3991, 3992, 3993, 3994, 3995, 3996
 3997, 3998, 3999, 4000, 4001, 4002, 4003, 4004, 4005, 4006, 4007, 4008, 4009, 4010, 4011, 4012
 4013, 4014, 4015, 4016, 4017, 4018, 4019, 4020, 4021, 4022, 4023, 4024, 4025, 4026, 4027, 4028
 4029, 4030, 4031, 4032, 4033, 4034, 4035, 4036, 4037, 4038, 4039, 4040, 4041, 4042, 4043, 4044
 4045, 4046, 4047, 4048, 4049, 4050, 4051, 4052, 4053, 4054, 4055, 4056, 4057, 4058, 4059, 4060
 4061, 4062, 4063, 4064, 4065, 4066, 4067, 4068, 4069, 4070, 4071, 4072, 4073, 4074, 4075, 4076
 4077, 4078, 4079, 4080, 4081, 4082, 4083, 4084, 4085, 4086, 4087, 4088, 4089, 4090, 4091, 4092
 4093, 4094, 4095, 4096, 4097, 4098, 4099, 4100, 4101, 4102, 4103, 4104, 4105, 4106, 4107, 4108
 4109, 4110, 4111, 4112, 4113, 4114, 4115, 4116, 4117, 4118, 4119, 4120, 4121, 4122, 4123, 4124
 4125, 4126, 4127, 4128, 4129, 4130, 4131, 4132, 4133, 4134, 4135, 4136, 4137, 4138, 4139, 4140
 4141, 4142, 4143, 4144, 4145, 4146, 4147, 4148, 4149, 4150, 4151, 4152, 4153, 4154, 4155, 4156
 4157, 4158, 4159, 4160, 4161, 4162, 4163, 4164, 4165, 4166, 4167, 4168, 4169, 4170, 4171, 4172
** ... 7 like lines cut
*Surface, type=ELEMENT, name=_PickedSurf96, internal
__PickedSurf96_S2, S2
*Elset, elset=__PickedSurf97_S2, internal, instance=PART-1-1, generate
 4209,  4640,     1
*Surface, type=ELEMENT, name=_PickedSurf97, internal
__PickedSurf97_S2, S2
*Elset, elset=__PickedSurf98_S2, internal, instance=PART-1-1
 4717, 4718, 4719, 4720, 4721, 4722, 4723, 4724, 4725, 4726, 4727, 4728, 4729, 4730, 4731, 4732
 4733, 4734, 4735, 4736, 4737, 4738, 4739, 4740, 4741, 4742, 4743, 4744, 4745, 4746, 4747, 4748
 4749, 4750, 4751, 4752, 4753, 4754, 4755, 4756, 4757, 4758, 4759, 4760, 4761, 4762, 4763, 4764
 4765, 4766, 4767, 4768, 4769, 4770, 4771, 4772, 4773, 4774, 4775, 4776, 4777, 4778, 4779, 4780
 4781, 4782, 4783, 4784, 4785, 4786, 4787, 4788, 4789, 4790, 4791, 4792, 4793, 4794, 4795, 4796
 4797, 4798, 4799, 4800, 4801, 4802, 4803, 4804, 4805, 4806, 4807, 4808, 4809, 4810, 4811, 4812
 4813, 4814, 4815, 4816, 4817, 4818, 4819, 4820, 4821, 4822, 4823, 4824, 4825, 4826, 4827, 4828
 4829, 4830, 4831, 4832, 4833, 4834, 4835, 4836, 4837, 4838, 4839, 4840, 4841, 4842, 4843, 4844
 4845, 4846, 4847, 4848, 4849, 4850, 4851, 4852, 4853, 4854, 4855, 4856, 4857, 4858, 4859, 4860
 4861, 4862, 4863, 4864, 4865, 4866, 4867, 4868, 4869, 4870, 4871, 4872, 4873, 4874, 4875, 4876
 4877, 4878, 4879, 4880, 4881, 4882, 4883, 4884, 4885, 4886, 4887, 4888, 4889, 4890, 4891, 4892
 4893, 4894, 4895, 4896, 4897, 4898, 4899, 4900, 4901, 4902, 4903, 4904, 4905, 4906, 4907, 4908
 4909, 4910, 4911, 4912, 4913, 4914, 4915, 4916, 4921, 4922, 4923, 4924, 4925, 4926, 4927, 4928
 4929, 4930, 4931, 4932, 4933, 4934, 4935, 4936, 4937, 4938, 4939, 4940, 4941, 4942, 4943, 4944
 4945, 4946, 4955, 4956, 4957, 4958, 4959, 4960, 4961, 4962, 4963, 4964, 4965, 4966, 4967, 4968
 4969, 4970, 4971, 4972, 4973, 4974, 4975, 4976, 4985, 4986, 4987, 4988, 4989, 4990, 4991, 4992
 4993, 4994, 4995, 4996, 4997, 4998, 4999, 5000, 5001, 5002, 5003, 5004, 5005, 5006, 5015, 5016
 5017, 5018, 5019, 5020, 5021, 5022, 5023, 5024, 5025, 5026, 5027, 5028, 5029, 5030, 5031, 5032
 5033, 5034, 5035, 5036, 5037, 5038, 5049, 5050, 5051, 5052, 5053, 5054, 5055, 5056, 5057, 5058
 5059, 5060, 5061, 5062, 5063, 5064, 5065, 5066, 5067, 5068, 5081, 5082, 5083, 5084, 5085, 5086
** ... 7 like lines cut
*Surface, type=ELEMENT, name=_PickedSurf98, internal
__PickedSurf98_S2, S2
*Elset, elset=__PickedSurf99_S2, internal, instance=PART-1-1
 4917, 4918, 4919, 4920, 4947, 4948, 4949, 4950, 4951, 4952, 4953, 4954, 4977, 4978, 4979, 4980
 4981, 4982, 4983, 4984, 5007, 5008, 5009, 5010, 5011, 5012, 5013, 5014, 5039, 5040, 5041, 5042
 5043, 5044, 5045, 5046, 5047, 5048, 5069, 5070, 5071, 5072, 5073, 5074, 5075, 5076, 5077, 5078
 5079, 5080, 5099, 5100, 5101, 5102, 5103, 5104, 5105, 5106, 5107, 5108, 5109, 5110, 5111, 5112
 5129, 5130, 5131, 5132, 5133, 5134, 5135, 5136, 5137, 5138, 5139, 5140, 5141, 5142, 5143, 5144
 5161, 5162, 5163, 5164, 5165, 5166, 5167, 5168, 5169, 5170, 5171, 5172, 5173, 5174, 5175, 5176
 5177, 5178, 5179, 5180, 5197, 5198, 5199, 5200, 5201, 5202, 5203, 5204, 5205, 5206, 5207, 5208
 5209, 5210, 5211, 5212, 5213, 5214, 5215, 5216, 5217, 5218, 5233, 5234, 5235, 5236, 5237, 5238
 5239, 5240, 5241, 5242, 5243, 5244, 5245, 5246, 5247, 5248, 5249, 5250, 5251, 5252, 5265, 5266
 5267, 5268, 5269, 5270, 5271, 5272, 5273, 5274, 5275, 5276, 5277, 5278, 5279, 5280, 5281, 5282
 5293, 5294, 5295, 5296, 5297, 5298, 5299, 5300, 5301, 5302, 5303, 5304, 5305, 5306, 5307, 5308
 5317, 5318, 5319, 5320, 5321, 5322, 5323, 5324, 5325, 5326, 5327, 5328, 5329, 5330, 5331, 5332
 5339, 5340, 5341, 5342, 5343, 5344, 5345, 5346, 5347, 5348, 5349, 5350, 5351, 5352, 5353, 5354
 5355, 5356, 5359, 5360, 5361, 5362, 5363, 5364, 5365, 5366, 5367, 5368, 5369, 5370, 5371, 5372
 5373, 5374, 5375, 5376, 5377, 5378, 5379, 5380, 5381, 5382, 5383, 5384, 5385, 5386, 5387, 5388
 5389, 5390, 5391, 5392, 5393, 5394, 5395, 5396, 5397, 5398, 5399, 5400, 5401, 5402, 5403, 5404
 5405, 5406, 5407, 5408, 5409, 5410, 5411, 5412, 5413, 5414, 5415, 5416, 5417, 5418, 5419, 5420
 5421, 5422, 5423, 5424, 5425, 5426, 5427, 5428, 5429, 5430, 5431, 5432, 5433, 5434, 5435, 5436
 5437, 5438, 5439, 5440, 5441, 5442, 5443, 5444, 5445, 5446, 5447, 5448, 5449, 5450, 5451, 5452
 5453, 5454, 5455, 5456, 5457, 5458, 5459, 5460, 5461, 5462, 5463, 5464, 5465, 5466, 5467, 5468
** ... 7 like lines cut
*Surface, type=ELEMENT, name=_PickedSurf99, internal
__PickedSurf99_S2, S2
*End Assembly
** 
** MATERIALS
** 
*Material, name=Min-K
*Conductivity
 0.052,
*Density
256.,
*Specific Heat
858.,
** Temperature unit: Kelvin
*Material, name=RENE41
*Conductivity
18.,
*Density
8240.,
*Specific Heat
541.,
** Temperature Unit: Kelvin
*Material, name=TIMETAL834
*Conductivity
7.,
*Density
4550.,
*Specific Heat
525.,
** 
** PHYSICAL CONSTANTS
** 
*Physical Constants, absolute zero=0., stefan boltzmann=5.67037e-08
** 
** BOUNDARY CONDITIONS
** 
** Name: BC-1 Type: Displacement/Rotation
*Boundary
_PickedSet23, 1, 1
_PickedSet23, 2, 2
_PickedSet23, 3, 3
_PickedSet23, 4, 4
_PickedSet23, 5, 5
_PickedSet23, 6, 6
** Name: BC-2 Type: Displacement/Rotation
*Boundary
_PickedSet22, 2, 2
** 
** PREDEFINED FIELDS
** 
** Name: Predefined Field-1   Type: Temperature
*Initial Conditions, type=TEMPERATURE
_PickedSet95, 293.15, 293.15, 293.15, 293.15, 293.15
** ----------------------------------------------------------------
** 
** STEP: Step-1
** 
*Step, name=Step-1, inc=1000000000
*Heat Transfer, end=PERIOD
1., 1000., , ,
** 
** LOADS
** 
** Name: Load-1   Type: Surface heat flux
*Dsflux
_PickedSurf96, S, 100000.
** Name: Load-2   Type: Surface heat flux
*Dsflux
_PickedSurf97, S, 100000.
** Name: Load-3   Type: Surface heat flux
*Dsflux
_PickedSurf98, S, 100000.
** Name: Load-4   Type: Surface heat flux
*Dsflux
_PickedSurf99, S, 100000.
** 
** CONTROLS
** 
*Controls, reset
*Controls, parameters=time incrementation
, , , , , , , 10, , , 
** 
** OUTPUT REQUESTS
** 
*Restart, write, overlay, frequency=1
** 
** FIELD OUTPUT: F-Output-1
** 
*Output, field
*Node Output
NT, RFL
*Element Output, directions=YES
HFL, TEMP
*Radiation Output
FTEMP, 
** 
** HISTORY OUTPUT: H-Output-1
** 
*Output, history
*Contact Output
HFLA, 
*Radiation Output
FTEMP, 
*End Step
