*Heading
** Job name: Falcon_FEM_Skin_Sym Model name: Falcon_FEM_Skin_Sym
** Generated by: Abaqus/CAE 6.10-1
*Preprint, echo=NO, model=NO, history=NO, contact=NO
**
** PARTS
**
*Part, name=PART-1
*Node
      4,   1.58899999,  -1.43937564e-06,  -1.11538303
     41,   2.22227716,  -1.27511953e-06,  0.752499998
     42,   2.46616054,  1.50835183e-06,  0.894843876
     43,   2.73150826,  -1.96983856e-05,   0.99371475
     44,   3.00601721,  1.43044745e-05,   1.06364727
     45,   3.28399992,  -3.88833041e-06,   1.11846924
     86,   1.58729315,  -1.27511942e-06,  0.267273724
     87,   1.79947376,  -1.27511942e-06,  0.429412603
     88,   2.01110339,  -1.27511942e-06,  0.591130435
     94,   3.55299997,  -1.27512044e-06,    1.1596278
    166,   4.06390905,  -1.25169731e-06,   -1.2433275
    167,   3.55299997,  -1.43175873e-06,  -1.23294842
    168,   4.60481119,  -1.5274843e-06,  -1.24909079
    169,   5.67400122,  -1.55119153e-06,  -1.25270629
    170,   5.14402676,  -2.04433104e-06,  -1.24983418
    201,   4.56815624,  -1.65088431e-06,   1.24146295
    202,   5.14211464,  -1.84981684e-06,   1.25076854
    203,   3.97730112,  -1.13885187e-06,   1.20410895
    207,   5.67357302,  -1.39242115e-06,   1.24985039
    238,   6.47988939,  -1.27548014e-06,   1.24999893
** ... 6024 like lines cut
*Element, type=S4
14776, 8428, 8429, 8427, 8426
14777, 8427, 8429, 8431, 8430
14778, 8429, 8432, 8433, 8431
14779, 8434, 8435, 8436, 8437
14780, 8435, 8438, 8439, 8436
14781, 8438, 8440, 8441, 8439
14782, 8445, 8444, 8443, 8446
14783, 8443, 8450, 8448, 8446
14784, 8430, 8431, 8448, 8450
14785, 8431, 8433, 8449, 8448
14786, 8455,   41,   42, 8454
14787, 8454,   42,   43, 8453
14788, 8453,   43,   44, 8452
14789, 8452,   44,   45, 8451
14790, 8460, 8455, 8454, 8459
14791, 8459, 8454, 8453, 8458
14792, 8458, 8453, 8452, 8457
14793, 8457, 8452, 8451, 8456
14794, 8465, 8460, 8459, 8464
14795, 8464, 8459, 8458, 8463
** ... 5582 like lines cut
*Element, type=S3
14806, 8475, 8474, 8479
14808, 8478, 8473, 8477
14809, 8473, 8472, 8477
14810, 8476, 8477, 8472
14811, 8476, 8472, 8471
14814, 8476, 8480, 8477
14815, 8480, 8483, 8481
14817, 8447, 8487, 8486
14836, 8466, 8461, 8506
14838, 8456, 8451, 8501
15181, 8926, 8927, 8904
15211, 8940, 8939, 8917
15238, 8981, 8898, 8897
15241, 8984, 8981, 8979
15246, 8984, 8900, 8899
15250, 8988, 8987, 8989
15255, 8947, 8890, 8986
15256, 8904, 8903, 8989
15264, 9000, 8843, 8844
15285, 9003, 9019, 9002
** ... 502 like lines cut
*Elset, elset=_PickedSet32, internal
 14776, 14777, 14778, 14779, 14780, 14781, 14782, 14783, 14784, 14785, 14786, 14787, 14788, 14789, 14790, 14791
 14792, 14793, 14794, 14795, 14796, 14797, 14798, 14799, 14800, 14801, 14802, 14803, 14804, 14805, 14806, 14807
 14808, 14809, 14810, 14811, 14812, 14813, 14814, 14815, 14816, 14817, 14818, 14819, 14820, 14821, 14822, 14823
 14824, 14825, 14826, 14827, 14828, 14829, 14830, 14831, 14832, 14833, 14834, 14835, 14836, 14837, 14838, 14839
 14840, 14841, 14842, 14843, 14844, 14845, 14846, 14847, 14848, 14849, 14850, 14851, 14852, 14853, 14854, 14855
 14856, 14857, 14858, 14859, 14860, 14861, 14862, 14863, 14864, 14865, 14866, 14867, 14868, 14869, 14870, 14871
 14872, 14873, 14874, 14875, 14876, 14877, 14878, 14879, 14880, 14881, 14882, 14883, 14884, 14885, 14886, 14887
 14888, 14889, 14890, 14891, 14892, 14893, 14894, 14895, 14896, 14897, 14898, 14899, 14900, 14901, 14902, 14903
 14904, 14905, 14906, 14907, 14908, 14909, 14910, 14911, 14912, 14913, 14914, 14915, 14916, 14917, 14918, 14919
 14920, 14921, 14922, 14923, 14924, 14925, 14926, 14927, 14928, 14929, 14930, 14931, 14932, 14933, 14934, 14935
 14936, 14937, 14938, 14939, 14940, 14941, 14942, 14943, 14944, 14945, 14946, 14947, 14948, 14949, 14950, 14951
 14952, 14953, 14954, 14955, 14956, 14957, 14958, 14959, 14960, 14961, 14962, 14963, 14964, 14965, 14966, 14967
 14968, 14969, 14970, 14971, 14972, 14973, 14974, 14975, 14976, 14977, 14978, 14979, 14980, 14981, 14982, 14983
 14984, 14985, 14986, 14987, 14988, 14989, 14990, 14991, 14992, 14993, 14994, 14995, 14996, 14997, 14998, 14999
 15000, 15001, 15002, 15003, 15004, 15005, 15006, 15007, 15008, 15009, 15010, 15011, 15012, 15013, 15014, 15015
 15016, 15017, 15018, 15019, 15020, 15021, 15022, 15023, 15024, 15025, 15026, 15027, 15028, 15029, 15030, 15031
 15032, 15033, 15034, 15035, 15036, 15037, 15038, 15039, 15040, 15041, 15042, 15043, 15044, 15045, 15046, 15047
 15048, 15049, 15050, 15051, 15052, 15053, 15054, 15055, 15056, 15057, 15058, 15059, 15060, 15061, 15062, 15063
 15064, 15065, 15066, 15067, 15068, 15069, 15070, 15071, 15072, 15073, 15074, 15075, 15076, 15077, 15078, 15079
 15080, 15081, 15082, 15083, 15084, 15085, 15086, 15087, 15088, 15089, 15090, 15091, 15092, 15093, 15094, 15095
** ... 363 like lines cut
** Section: Section-1
*Shell Section, elset=_PickedSet32, material=ALUM
0.1, 5
*End Part
**  
**
** ASSEMBLY
**
*Assembly, name=Assembly
**  
*Instance, name=PART-1-1, part=PART-1
*End Instance
**  
*Elset, elset=_PICKEDSET4, internal, instance=PART-1-1
 14841, 14850, 14851, 14852, 14853, 14854, 14855, 14856, 14857, 14858, 14859, 14860, 14861, 14862, 14863, 14864
 14865, 14866, 14867, 14868, 14869, 14870, 14871, 14872, 14873, 14874, 14875, 14876, 14877, 14878, 14879, 14880
 14881, 14882, 14883, 14884, 14885, 14886, 14926, 14927, 14928, 14929, 14931, 14932, 14933, 14934, 14971, 14972
 14973, 14974, 14975, 14976, 14977, 14978, 14979, 14980, 14981, 14982, 14983, 14984, 14985, 14986, 14987, 14988
 14989, 14990, 14991, 14992, 14993, 14994, 14995, 14996, 14997, 14998, 14999, 15000, 15001, 15002, 15003, 15004
 15005, 15006, 15007, 15008, 15009, 15010, 15011, 15012, 15013, 15014, 15015, 15016, 15017, 15054, 15055, 15056
 15057, 15058, 15059, 15060, 15061, 15062, 15063, 15064, 15065, 15066, 15067, 15068, 15069, 15070, 15071, 15072
 15073, 15074, 15075, 15076, 15077, 15078, 15079, 15080, 15081, 15082, 15083, 15084, 15085, 15086, 15087, 15088
 15089, 15090, 15091, 15092, 15093, 15094, 15095, 15096, 15097, 15098, 15099, 15100, 15101, 15102, 15103, 15104
 15105, 15106, 15107, 15108, 15109, 15110, 15111, 15112, 15113, 15114, 15115, 15116, 15117, 15118, 15119, 15120
 15121, 15122, 15123, 15124, 15125, 15126, 15127, 15128, 15129, 15130, 15131, 15132, 15133, 15134, 15135, 15136
 15137, 15138, 15160, 15161, 15162, 15163, 15263, 15264, 15265, 15266, 15267, 15268, 15269, 15270, 15271, 15272
 15273, 15274, 15275, 15276, 15277, 15278, 15279, 15280, 15281, 15282, 15283, 15284, 15285, 15286, 15287, 15288
 15289, 15290, 15291, 15292, 15293, 15294, 15295, 15296, 15297, 15298, 15299, 15300, 15301, 15302, 15303, 15304
 15305, 15306, 15307, 15308, 15309, 15310, 15553, 15554, 15555, 15556, 15557, 15558, 15559, 15560, 15561, 15562
 15563, 15564, 15565, 15566, 15567, 15568, 15569, 15570, 15571, 15572, 15573, 15574, 15575, 15576, 15577, 15578
 15579, 15580, 15581, 15582, 15583, 15584, 15585, 15586, 15587, 16183, 16184, 16185, 16186, 20898, 20899, 21530
 21531, 21532, 21533, 21534, 21535, 21536, 21537, 21538, 21539, 21540, 21541, 21542, 21543, 21544, 21545, 21546
 21547, 21548, 21549, 21550, 21551, 21552, 21553, 21554, 21555, 21556, 21557, 21558, 21559, 21560, 21561, 21562
 21563, 21564, 21565, 21566, 21567, 21568, 21569, 21570, 21571, 21572, 21573, 21574, 21575, 21576, 21577, 21578
** ... 52 like lines cut
*Elset, elset=_PICKEDSET6, internal, instance=PART-1-1
 30095, 30096, 30097, 30098, 30099, 30100, 30101, 30102, 30103, 30104, 30105, 30106, 30113, 30114, 30115, 30116
 30117, 30118, 30119, 30120, 30121, 30122, 30123, 30124, 30125, 30126, 30127, 30128, 30129, 30130, 30131, 30132
 30133, 30134, 30135, 30136, 30137, 30138, 30139, 30140, 30141, 30142, 30143, 30144, 30145, 30146, 30147, 30148
 30149, 30150, 30151, 30152, 30153, 30154, 30155, 30156, 30157, 30158, 30159, 30160, 30161, 30162, 30163, 30164
 30165, 30166, 30167, 30168, 30169, 30170, 30171, 30172, 30173, 30174, 30175, 30176, 30177, 30178, 30179, 30180
 30181, 30182, 30183, 30184, 30195, 30196, 30197, 30198, 30199, 30200, 30201, 30202, 30203, 30204, 30205, 30206
 30207, 30208, 30209, 30210, 30211, 30212, 30213, 30214, 30215, 30216, 30217, 30218, 30219, 30220, 30221, 30222
 30223, 30224, 30225, 30226, 30227, 30228, 30229, 30230, 30231, 30232, 30233, 30234, 30235, 30236, 30237, 30238
 30239, 30240, 30241, 30242, 30243, 30264, 30265, 30266, 30267, 30268, 30269, 30270, 30271, 30272, 30273, 30274
 30275, 30276, 30277, 30278, 30279, 30280, 30281, 30282, 30283, 30284, 30285, 30286, 30287, 30288, 30289, 30290
 30291, 30292, 30293, 30294, 30295, 30296, 30297, 30298, 30299, 30300, 30301, 30302, 30303, 30304, 30305, 30306
 30307, 30308, 30309, 30310, 30311, 30312, 30313, 30314, 30315, 30316, 30317, 30318, 30319, 30320, 30321, 30322
 30323, 30324, 30325, 30326, 30327, 30328, 30329, 30330, 30331, 30332, 30333, 30334, 30335, 30403, 30404, 30405
*Elset, elset=_PICKEDSET10, internal, instance=PART-1-1
 15968, 15969, 15970, 15971, 15972, 15973, 15974, 15975, 15976, 15977, 15978, 15979, 15980, 15981, 15982, 15983
 15984, 15985, 15986, 15987, 15988, 15989, 15990, 15991, 15992, 15993, 15994, 15995, 15996, 15997, 15998, 15999
 16000, 16001, 16002, 16003, 16004, 16005, 16006, 16007, 16008, 16009, 16010, 16011, 16012, 16013, 16014, 16015
 16016, 16017, 16018, 16019, 16020, 16021, 16022, 16023, 16024, 16025, 16026, 16027, 16028, 16029, 16030, 16031
 16032, 16033, 16034, 16035, 16036, 16037, 16038, 16039, 16040, 16041, 16042, 16043, 16044, 16045, 16046, 16047
 16048, 16049, 16050, 16051, 16052, 16053, 16054, 16055, 16056, 16057, 16058, 16059, 16060, 16061, 16062, 16063
 16064, 16065, 16066, 16067, 16068, 16069, 16070, 16071, 16072, 16073, 16074, 16075, 16076, 16077, 16078, 16079
 16080, 16081, 16082, 16083, 16084, 16085, 16086, 16087, 16088, 16089, 16090, 16091, 16092, 16093, 16094, 16095
 16096, 16097, 16098, 16099, 16100, 16101, 16102, 16103, 16104, 16105, 16106, 16107, 16108, 16109, 16110, 16111
 16112, 16113, 16114, 16115, 16116, 16117, 16118, 16119, 16120, 16121, 16122, 16123, 16124, 16125, 16126, 16127
 16128, 16129, 16130, 16131, 16132, 16133, 16134, 16135, 16136, 16137, 16138, 16139, 16140, 16141, 16142, 16143
 16144, 16145, 16146, 16147, 16148, 16149, 16150, 16151, 16152, 16153, 16154, 16155, 16156, 16157, 16158, 16159
 16160, 26486, 26487, 26488, 26489, 26490, 26491, 26492, 26493, 26494, 26495, 26496, 26497, 26498, 26499, 26500
 26501, 26502, 26503, 26504, 26505, 26506, 26507, 26508, 26509, 26510, 26511, 26512, 26513, 26514, 26515, 26516
 26517, 26518, 26519, 26520, 26521, 26522, 26523, 26524, 26525, 26526, 26527, 26528, 26529, 26530, 26531, 26532
 26533, 26534, 26535, 26536, 26537, 26538, 26539, 26540, 26541, 26542, 26543, 26544, 26545, 26546, 26547, 26548
 26549, 26550, 26551, 26552, 26553, 26554, 26555, 26556, 26557, 26558, 26559, 26560, 26561, 26562, 26563, 26564
 26565, 26566, 26567, 26568, 26569, 26570, 26571, 26572, 26573, 26574, 26575, 26576, 26577, 26578, 26579, 26580
 26581, 26582, 26583, 26584, 26585, 26586, 26587, 26588, 26589, 26590, 26591, 26592, 26593, 26594, 26595, 26596
 26597, 26598, 26599, 26600, 26601, 26602, 26603, 26604, 26605, 26606, 26607, 26608, 26609, 26610, 26611, 26612
** ... 6 like lines cut
*Elset, elset=_PICKEDSET27, internal, instance=PART-1-1
 18724, 18725, 18726, 18727, 18728, 18729, 18730, 18731, 18732, 18733, 18734, 18735, 18736, 18737, 18738, 18739
 18740, 18741, 18742, 18743, 18744, 18769, 18770, 18771, 18772, 18773, 18774, 18775, 18776, 18777, 18778, 18779
 18780, 18781, 18782, 18783, 18784, 18785, 18786, 18787, 18788, 18789, 18790, 18791, 18792, 18793, 18794, 18795
 18796, 18921, 18922, 18923, 18924, 18925, 18926, 18927, 18928, 18929, 18930, 18931, 18932, 18933, 18934, 18935
 18936, 18937, 18938, 18939, 18940, 18941, 18942, 18943, 18944, 18945, 18946, 18947, 18948, 18949, 18950, 18951
 18952, 18953, 18954, 18955, 18956, 18957, 18958, 18959, 18960, 18961, 18962, 18963, 18964, 18965, 18966, 18967
 18968, 18969, 18970, 18971, 18972, 18973, 18974, 18975, 18976, 18977, 18978, 18979, 18980, 18981, 18982, 18983
 18984, 18985, 18986, 18987, 18988, 18989, 18990, 18991, 18992, 18993, 18994, 18995, 18996, 18997, 18998, 18999
 19000, 19001, 19002, 19003, 19004, 19005, 19006, 19007, 19008, 19009, 19010, 19011, 19012, 19013, 19014, 19015
 19016, 19017, 19018, 19019, 19020, 19021, 19022, 19023, 19024, 19025, 19026, 19027, 19028, 19029, 19030, 19031
 19032, 19033, 19034, 19035, 19036, 19037, 19038, 19039, 19040, 19041, 19042, 19043, 19044, 19045, 19046, 19047
 19048, 19049, 19050, 19051, 19052, 19053, 19054, 19055, 19056, 19057, 19058, 19059, 19060, 19061, 19062, 19063
 19064, 19065, 19066, 19067, 19068, 19069, 19070, 19071, 19072, 19073, 19074, 19075, 19076, 19077, 19078, 19079
 19080, 19081, 19082, 19083, 19084, 19085, 19086, 19087, 19088, 19089, 19090, 19091, 19250, 19251, 19252, 19253
 19254, 19255, 19256, 19257, 19258, 19259, 19260, 19261, 19262, 19263, 19264, 19265, 19266, 19267, 19268, 19269
 19270, 19271, 19272, 19273, 19274, 19275, 19276, 19277, 19278, 19279, 19280, 19281, 19282, 19283, 19284, 19285
 19286, 19287, 19288, 19289, 19290, 19291, 19292, 19293, 19294, 19295, 19296, 19297, 19298, 19299, 19300, 19301
 19302, 19303, 19304, 19305, 19306, 19307, 19308, 19309, 19310, 19311, 19312, 19313, 19314, 19315, 19316, 19317
 19318, 19319, 19320, 19321, 19322, 19323, 19324, 19325, 19326, 19327, 19328, 19329, 19330, 19331, 19332, 19333
 19334, 19335, 19336, 19337, 19338, 19339, 19340, 19341, 19342, 19343, 19344, 19345, 19346, 19347, 19348, 19349
** ... 97 like lines cut
*Elset, elset=_PICKEDSET28, internal, instance=PART-1-1
 14776, 14777, 14779, 14780, 14781, 14782, 14783, 14784, 15179, 15180, 15181, 15182, 15183, 15184, 15185, 15186
 15187, 15188, 15189, 15190, 15191, 15192, 15193, 15194, 15195, 15196, 15197, 15198, 15199, 15200, 15201, 15202
 15203, 15204, 15205, 15206, 15207, 15208, 15209, 15210, 15211, 15212, 15213, 15214, 15215, 15216, 15217, 15218
 15219, 15220, 15221, 15222, 15223, 15224, 15225, 15226, 15227, 15228, 15229, 15230, 15231, 15232, 15233, 15234
 15235, 15236, 15237, 15238, 15239, 15240, 15241, 15242, 15243, 15244, 15245, 15246, 15247, 15248, 15249, 15250
 15251, 15252, 15253, 15254, 15255, 15256, 16960, 16961, 16962, 16963, 16964, 16965, 16966, 16967, 16968, 16969
 16970, 16971, 16972, 16973, 16974, 16975, 16976, 16977, 16978, 16979, 16980, 16981, 16982, 16983, 16984, 16985
 16986, 16987, 16988, 16989, 16990, 16991, 16992, 17768, 17769, 20810, 20811, 20812, 20813, 20814, 20815, 20816
 20817, 20818, 20819, 20820, 20821, 20822, 20823, 20824, 20825, 20826, 20827, 20828, 20829, 20830, 20831, 20832
 20833, 20834, 20835, 20836, 20837, 20838, 20839, 20840, 20841, 20842, 20843, 20844, 20845, 20846, 20847, 20848
 20849, 20850, 20851, 20852, 20853, 20854, 20855, 20856, 20857, 20858, 20859, 20860, 20861, 20862, 20863, 20864
 20865, 20866, 20867, 20868, 20869, 20870, 20871, 20872, 20881, 20882, 20883, 20884, 20885, 20886, 20887, 20888
 20889, 20890, 20891, 20892, 20893, 20894, 20895, 20896, 20897, 21919, 21920, 21998, 21999, 22000, 22001, 22002
 22003, 22004, 22005, 22006, 22007, 22008, 22009, 22010, 22011, 22012, 22013, 22014, 22015, 22016, 22017, 22018
 22019, 22020, 22021, 22022, 22023, 22024, 22025, 22026, 22027, 22028, 22029, 22030, 22031, 22032, 22033, 22034
 22035, 22036, 22037, 22038, 22039, 22040, 22041, 22042, 22043, 22044, 22045, 22046, 22047, 22048, 22049, 22050
 22051, 22052, 22053, 22054, 22055, 22056, 22057, 22058, 22059, 22060, 22061, 22062, 22063, 22064, 22065, 22066
 22067, 22068, 22069, 22070, 22071, 22072, 22073, 22074, 22097, 22098, 22099, 22100, 22101, 22102, 22103, 22104
 22105, 22106, 22107, 22108, 22109, 22110, 22111, 22112, 22113, 22114, 22115, 22116, 22157, 22158, 22159, 22160
 22161, 22162, 22163, 22164, 22165, 22183, 22184, 22229, 22230, 22231, 22232, 22233, 22234, 22235, 22236, 22237
 22238, 22239, 22240, 22241, 22242, 22243, 22244, 22245, 22246, 22247, 22248, 22249, 22250, 22251, 22252, 22253
 22254, 22255, 22256, 22257, 22258, 22259, 22260, 22261, 22262, 22263, 22264, 22265, 22266, 22267, 22268, 22269
 22270, 22271, 22272, 22273, 22274, 22275, 22276, 22277, 22278, 22279, 22280, 27248
*Elset, elset=_PICKEDSET29, internal, instance=PART-1-1
 14841, 14842, 14843, 14844, 14845, 14846, 14847, 14848, 14849, 14850, 14851, 14852, 14853, 14854, 14855, 14856
 14857, 14858, 14859, 14860, 14861, 14862, 14863, 14864, 14865, 14866, 14867, 14868, 14869, 14870, 14871, 14872
 14873, 14874, 14875, 14876, 14877, 14878, 14879, 14880, 14881, 14882, 14883, 14884, 14885, 14886, 14887, 14888
 14889, 14890, 14891, 14892, 14893, 14894, 14895, 14896, 14897, 14898, 14899, 14900, 14901, 14902, 14903, 14904
 14905, 14906, 14907, 14908, 14909, 14910, 14911, 14912, 14913, 14914, 14915, 14916, 14917, 14918, 14919, 14920
 14921, 14922, 14923, 14924, 14925, 14926, 14927, 14928, 14929, 14930, 14931, 14932, 14933, 14934, 14935, 14936
 14937, 14938, 14939, 14940, 14941, 14942, 14943, 14944, 14945, 14946, 14947, 14948, 14949, 14950, 14951, 14952
 14953, 14954, 14955, 14956, 14957, 14958, 14959, 14960, 14961, 14962, 14963, 14964, 14965, 14966, 14967, 14968
 14969, 14970, 14971, 14972, 14973, 14974, 14975, 14976, 14977, 14978, 14979, 14980, 14981, 14982, 14983, 14984
 14985, 14986, 14987, 14988, 14989, 14990, 14991, 14992, 14993, 14994, 14995, 14996, 14997, 14998, 14999, 15000
 15001, 15002, 15003, 15004, 15005, 15006, 15018, 15019, 15020, 15021, 15022, 15023, 15024, 15025, 15026, 15027
 15028, 15029, 15030, 15031, 15032, 15033, 15034, 15035, 15036, 15037, 15038, 15039, 15040, 15041, 15042, 15043
 15044, 15045, 15046, 15047, 15048, 15049, 15050, 15051, 15052, 15053, 15111, 15112, 15113, 15114, 15115, 15116
 15117, 15118, 15119, 15120, 15121, 15122, 15123, 15124, 15125, 15126, 15127, 15128, 15129, 15130, 15131, 15132
 15133, 15134, 15135, 15136, 15137, 15138, 15139, 15140, 15141, 15142, 15143, 15144, 15145, 15146, 15147, 15148
 15149, 15150, 15151, 15152, 15153, 15154, 15155, 15156, 15157, 15158, 15159, 15160, 15161, 15162, 15163, 15164
 15165, 15166, 15167, 15168, 15169, 15170, 15171, 15172, 15173, 15174, 15175, 15176, 15177, 15178, 15263, 15264
 15265, 15266, 15267, 15268, 15269, 15270, 15271, 15272, 15273, 15274, 15275, 15276, 15277, 15278, 15279, 15280
 15281, 15282, 15283, 15284, 15285, 15286, 15287, 15288, 15289, 15290, 15291, 15292, 15293, 15294, 15295, 15296
 15297, 15298, 15299, 15300, 15301, 15302, 15303, 15304, 15305, 15306, 15307, 15308, 15309, 15310, 15553, 15554
** ... 21 like lines cut
*Elset, elset=_PICKEDSET30, internal, instance=PART-1-1
 15179, 15180, 15181, 15182, 15183, 15184, 15185, 15186, 15187, 15188, 15189, 15190, 15191, 15192, 15193, 15194
 15195, 15196, 15197, 15198, 15199, 15200, 15201, 15202, 15203, 15204, 15205, 15206, 15207, 15208, 15209, 15210
 15211, 15212, 15213, 15214, 15215, 15216, 15217, 15218, 15219, 15220, 15221, 15222, 15223, 15224, 15225, 15226
 15227, 15228, 15229, 15230, 15231, 15232, 15233, 15234, 15235, 15236, 15237, 15238, 15239, 15240, 15241, 15242
 15243, 15244, 15245, 15246, 15247, 15248, 15249, 15250, 15251, 15252, 15253, 15254, 15255, 15256, 17768, 17769
 20881, 20882, 20883, 20884, 20885, 20886, 20887, 20888, 20889, 20890, 20891, 20892, 20893, 20894, 20895, 20896
 20897, 21919, 21920, 21998, 21999, 22000, 22001, 22002, 22003, 22004, 22005, 22006, 22007, 22008, 22009, 22010
 22011, 22012, 22013, 22014, 22015, 22016, 22017, 22018, 22019, 22020, 22021, 22022, 22023, 22024, 22025, 22026
 22027, 22028, 22029, 22030, 22031, 22032, 22033, 22034, 22035, 22036, 22037, 22038, 22039, 22040, 22041, 22042
 22043, 22044, 22045, 22046, 22047, 22048, 22049, 22050, 22051, 22052, 22053, 22054, 22055, 22056, 22057, 22058
 22059, 22060, 22061, 22062, 22063, 22064, 22065, 22066, 22067, 22068, 22069, 22070, 22071, 22072, 22073, 22074
 27248,
*Elset, elset=_PICKEDSET31, internal, instance=PART-1-1
 14776, 14777, 14778, 14779, 14780, 14781, 14782, 14783, 14784, 14785, 14786, 14787, 14788, 14789, 14790, 14791
 14792, 14793, 14794, 14795, 14796, 14797, 14798, 14799, 14800, 14801, 14802, 14803, 14804, 14805, 14806, 14807
 14808, 14809, 14810, 14811, 14812, 14813, 14814, 14815, 14816, 14817, 14818, 14819, 14820, 14821, 14822, 14823
 14824, 14825, 14826, 14827, 14828, 14829, 14830, 14831, 14832, 14833, 14834, 14835, 14836, 14837, 14838, 14839
 14840, 15257, 15258, 15259, 15260, 15261, 15262, 16960, 16961, 16962, 16963, 16964, 16965, 16966, 16967, 16968
 16969, 16970, 16971, 16972, 16973, 16974, 16975, 16976, 16977, 16978, 16979, 16980, 16981, 16982, 16983, 16984
 16985, 16986, 16987, 16988, 16989, 16990, 16991, 16992, 20810, 20811, 20812, 20813, 20814, 20815, 20816, 20817
 20818, 20819, 20820, 20821, 20822, 20823, 20824, 20825, 20826, 20827, 20828, 20829, 20830, 20831, 20832, 20833
 20834, 20835, 20836, 20837, 20838, 20839, 20840, 20841, 20842, 20843, 20844, 20845, 20846, 20847, 20848, 20849
 20850, 20851, 20852, 20853, 20854, 20855, 20856, 20857, 20858, 20859, 20860, 20861, 20862, 20863, 20864, 20865
 20866, 20867, 20868, 20869, 20870, 20871, 20872, 20873, 20874, 20875, 20876, 20877, 20878, 20879, 20880, 21917
 21918, 22097, 22098, 22099, 22100, 22101, 22102, 22103, 22104, 22105, 22106, 22107, 22108, 22109, 22110, 22111
 22112, 22113, 22114, 22115, 22116, 22157, 22158, 22159, 22160, 22161, 22162, 22163, 22164, 22165, 22183, 22184
 22229, 22230, 22231, 22232, 22233, 22234, 22235, 22236, 22237, 22238, 22239, 22240, 22241, 22242, 22243, 22244
 22245, 22246, 22247, 22248, 22249, 22250, 22251, 22252, 22253, 22254, 22255, 22256, 22257, 22258, 22259, 22260
 22261, 22262, 22263, 22264, 22265, 22266, 22267, 22268, 22269, 22270, 22271, 22272, 22273, 22274, 22275, 22276
 22277, 22278, 22279, 22280, 22678, 22679, 22680, 22681
*Elset, elset=_PICKEDSET32, internal, instance=PART-1-1
 14841, 14842, 14843, 14844, 14845, 14846, 14847, 14848, 14849, 14850, 14851, 14852, 14853, 14854, 14855, 14856
 14857, 14858, 14859, 14860, 14861, 14862, 14863, 14864, 14865, 14866, 14867, 14868, 14869, 14870, 14871, 14872
 14873, 14874, 14875, 14876, 14877, 14878, 14879, 14880, 14881, 14882, 14883, 14884, 14885, 14886, 14887, 14888
 14889, 14890, 14891, 14892, 14893, 14894, 14895, 14896, 14897, 14898, 14899, 14900, 14901, 14902, 14903, 14904
 14905, 14906, 14907, 14908, 14909, 14910, 14911, 14912, 14913, 14914, 14915, 14916, 14917, 14918, 14919, 14920
 14921, 14922, 14923, 14924, 14925, 14926, 14927, 14928, 14929, 14930, 14931, 14932, 14933, 14934, 14935, 14936
 14937, 14938, 14939, 14940, 14941, 14942, 14943, 14944, 14945, 14946, 14947, 14948, 14949, 14950, 14951, 14952
 14953, 14954, 14955, 14956, 14957, 14958, 14959, 14960, 14961, 14962, 14963, 14964, 14965, 14966, 14967, 14968
 14969, 14970, 14971, 14972, 14973, 14974, 14975, 14976, 14977, 14978, 14979, 14980, 14981, 14982, 14983, 14984
 14985, 14986, 14987, 14988, 14989, 14990, 14991, 14992, 14993, 14994, 14995, 14996, 14997, 14998, 14999, 15000
 15001, 15002, 15003, 15004, 15005, 15006, 15018, 15019, 15020, 15021, 15022, 15023, 15024, 15025, 15026, 15027
 15028, 15029, 15030, 15031, 15032, 15033, 15034, 15035, 15036, 15037, 15038, 15039, 15040, 15041, 15042, 15043
 15044, 15045, 15046, 15047, 15048, 15049, 15050, 15051, 15052, 15053, 15111, 15112, 15113, 15114, 15115, 15116
 15117, 15118, 15119, 15120, 15121, 15122, 15123, 15124, 15125, 15126, 15127, 15128, 15129, 15130, 15131, 15132
 15133, 15134, 15135, 15136, 15137, 15138, 15139, 15140, 15141, 15142, 15143, 15144, 15145, 15146, 15147, 15148
 15149, 15150, 15151, 15152, 15153, 15154, 15155, 15156, 15157, 15158, 15159, 15160, 15161, 15162, 15163, 15164
 15165, 15166, 15167, 15168, 15169, 15170, 15171, 15172, 15173, 15174, 15175, 15176, 15177, 15178, 15263, 15264
 15265, 15266, 15267, 15268, 15269, 15270, 15271, 15272, 15273, 15274, 15275, 15276, 15277, 15278, 15279, 15280
 15281, 15282, 15283, 15284, 15285, 15286, 15287, 15288, 15289, 15290, 15291, 15292, 15293, 15294, 15295, 15296
 15297, 15298, 15299, 15300, 15301, 15302, 15303, 15304, 15305, 15306, 15307, 15308, 15309, 15310, 15553, 15554
** ... 21 like lines cut
*Elset, elset=_PICKEDSET33, internal, instance=PART-1-1
 15007, 15008, 15009, 15010, 15011, 15012, 15013, 15014, 15015, 15016, 15017, 15054, 15055, 15056, 15057, 15058
 15059, 15060, 15061, 15062, 15063, 15064, 15065, 15066, 15067, 15068, 15069, 15070, 15071, 15072, 15073, 15074
 15075, 15076, 15077, 15078, 15079, 15080, 15081, 15082, 15083, 15084, 15085, 15086, 15087, 15088, 15089, 15090
 15091, 15092, 15093, 15094, 15095, 15096, 15097, 15098, 15099, 15100, 15101, 15102, 15103, 15104, 15105, 15106
 15107, 15108, 15109, 15110, 15569, 15570, 15571, 15572, 15573, 15574, 15575, 15576, 15577, 15578, 15579, 15580
 15581, 15582, 15587, 16183, 16184, 16185, 16186, 22734, 22735, 22736, 22737, 22738, 22739, 22740, 22741, 22742
 22743, 22744, 22745, 22746, 22747, 22748, 22749, 22750, 22751, 22752, 22753, 22754, 22755, 22756, 22757, 22758
 22759, 22760, 22761, 22762, 22763, 22764, 22765, 22766, 22767, 22768, 22769, 22770, 22771, 22772, 22773, 22774
 22775, 22776, 22777, 22778, 22779, 22780, 22781, 22782, 22783, 22784, 22785, 22786, 22787, 22788, 22789, 22790
 22791, 22792, 22793, 22794, 22795, 22796, 22797, 22798, 22799, 22800, 22801, 22802, 22803, 22804, 22805, 22806
 22807, 22808, 22809, 22810, 22811, 22812, 22813, 22814, 22815, 22816, 22817, 22818, 22819, 22820, 22821, 22822
 22823, 22824, 22825, 22826, 22827, 22828, 22829, 22830, 22831, 22832, 22833, 22834, 22835, 22836, 22837, 22838
 22839, 22840, 22841, 22842, 22843, 22844, 22845, 22846, 22847, 22848, 22849, 22850, 22851, 22852, 22853, 22854
 22855, 22856, 22857, 22858, 22859, 22860, 22861, 22862, 22863, 22864, 22865, 22866, 22867, 22868, 22869, 22870
 22871, 23679, 23680, 23681, 23682, 23683, 23684, 23685, 23686, 23687, 23688, 23689, 23690, 23691, 23692, 23693
 23694, 23695, 23696, 23697, 23698, 23699, 23700, 23701, 23702, 23703, 23704, 23705, 23706, 23707, 23708, 23709
 23710, 23711, 23712, 23713, 23714, 23715, 23716, 23717, 23718, 23719, 23720, 23721, 23722, 23723, 23724, 23725
 23726, 23727, 23728, 23729, 23730, 23731, 23732, 23733, 23734, 23735, 23736, 23737, 23738, 23739, 23740, 23741
 23742, 23743, 23744, 23745, 23746, 23747, 23748, 23749, 23750, 23751, 23752, 23753, 23754, 23755, 23756, 23757
 23758, 23759, 23760, 23761, 23762, 23763, 23764, 23765, 23766, 23767, 23768, 23769, 23770, 23771, 23772, 23773
** ... 22 like lines cut
*Elset, elset=_PICKEDSET34, internal, instance=PART-1-1
 15311, 15312, 15313, 15314, 15315, 15316, 15317, 15318, 15319, 15320, 15321, 15322, 15323, 15324, 15325, 15326
 15327, 15328, 15329, 15330, 15331, 15332, 15333, 15334, 15335, 15336, 15337, 15338, 15339, 15340, 15341, 15342
 15343, 15344, 15345, 15346, 15347, 15348, 15349, 15350, 15351, 15352, 15353, 15354, 15355, 15356, 15357, 15358
 15359, 15360, 15361, 15362, 15363, 15364, 15365, 15366, 15367, 15368, 15369, 15370, 15371, 15372, 15373, 15374
 15375, 15376, 15377, 15378, 15379, 15380, 15381, 15382, 15383, 15384, 15385, 15386, 15387, 15388, 15389, 15390
 15391, 15392, 15393, 15394, 15395, 15396, 15397, 15398, 15399, 15400, 15401, 15402, 15403, 15404, 15405, 15406
 15407, 15408, 15409, 15410, 15411, 15412, 15413, 15414, 15415, 15416, 15417, 15418, 15419, 15420, 15421, 15422
 15423, 15424, 15425, 15426, 15427, 15428, 15429, 15430, 15431, 15432, 15433, 15434, 15435, 15436, 15437, 15438
 15439, 15440, 15441, 15442, 15443, 15444, 15445, 15446, 15447, 15448, 15449, 15450, 15451, 15452, 15453, 15454
 15455, 15456, 15457, 15458, 15459, 15460, 15461, 15462, 15463, 15464, 15465, 15466, 15467, 15468, 15469, 15470
 15471, 15472, 15473, 15474, 15475, 15476, 15477, 15478, 15479, 15480, 15481, 15482, 15483, 15484, 15485, 15486
 15487, 15488, 15489, 15490, 15491, 15492, 15493, 15494, 15495, 15496, 15497, 15498, 15499, 15500, 15501, 15502
 15503, 15504, 15505, 15506, 15507, 15508, 15509, 15510, 15511, 15512, 15513, 15514, 15515, 15516, 15517, 15518
 15519, 15520, 15521, 15522, 15523, 15524, 15525, 15526, 15527, 15528, 15529, 15530, 15531, 15532, 15533, 15534
 15535, 15536, 15537, 15538, 15539, 15540, 15541, 15542, 15543, 15544, 15545, 15546, 15547, 15548, 15549, 15550
 15551, 15552, 16187, 16188, 16189, 16190, 16191, 16192, 16193, 16194, 16195, 16196, 16197, 16198, 16199, 16200
 16201, 16202, 16203, 16204, 16205, 16206, 16207, 16208, 16209, 16210, 16211, 16212, 16213, 16214, 16215, 16216
 16217, 16218, 16219, 16220, 16221, 16222, 16223, 16224, 16225, 16226, 16227, 16228, 16229, 16230, 16231, 16232
 16233, 16234, 16235, 16236, 16237, 16238, 16239, 17903, 17904, 17905, 17906, 17907, 17908, 17909, 17910, 17911
 17912, 17994, 17995, 18079, 18080, 18081, 18082, 18099, 18100, 18101, 18102, 18103, 18104, 18105, 18106, 18107
** ... 16 like lines cut
*Elset, elset=_PICKEDSET35, internal, instance=PART-1-1
 15311, 15312, 15313, 15315, 15316, 15317, 15318, 15319, 15320, 15321, 15322, 15323, 15324, 15325, 15326, 15327
 15328, 15329, 15330, 15331, 15332, 15333, 15334, 15335, 15336, 15337, 15338, 15339, 15340, 15341, 15342, 15343
 15344, 15345, 15346, 15347, 15348, 15349, 15350, 15351, 15352, 15353, 15354, 15355, 15356, 15357, 15358, 15359
 15360, 15375, 15376, 15377, 15405, 15406, 15407, 15408, 15409, 15410, 15411, 15412, 15413, 15414, 15415, 15416
 15417, 15418, 15419, 15420, 15421, 15422, 15423, 15424, 15425, 15426, 15427, 15428, 15429, 15430, 15431, 15432
 15433, 15434, 15435, 15436, 15437, 15438, 15439, 15440, 15441, 15442, 15443, 15444, 15445, 15446, 15447, 15448
 15449, 15450, 15451, 15452, 15453, 15454, 15455, 15456, 15457, 15469, 15470, 15471, 15472, 15473, 15474, 15475
 15476, 15477, 15478, 15479, 15530, 15531, 15532, 15533, 15536, 15537, 15538, 15539, 15540, 15541, 15542, 15544
 15545, 15550, 16187, 16188, 16189, 16190, 16191, 16192, 16193, 16194, 16195, 16196, 16197, 16198, 16199, 16200
 16201, 16202, 16203, 16204, 16205, 16206, 16207, 16208, 16209, 16210, 16211, 16212, 16213, 16214, 16215, 16216
 16217, 16218, 16219, 16220, 16221, 16222, 16223, 16230, 16231, 16232, 16233, 16234, 16235, 16236, 16237, 16238
 16239, 17903, 17904, 17905, 17906, 17907, 17908, 17909, 17910, 17911, 17912, 20808, 20900, 20901, 20902, 26777
 26778, 26779, 26780, 26781, 26782, 26783, 26784, 26785, 26786, 26787, 26788, 26789, 26790, 26791, 26792, 26793
 26794, 26795, 26796, 26797, 26798, 26799, 26800, 26801, 26802, 26803, 26804, 26805, 26806, 26807, 26808, 26809
 26810, 26811, 26812, 26813, 26814, 26815, 26816, 26817, 26818, 26819, 26820, 26821, 26822, 26823, 26824, 26825
 26826, 26827, 26828, 26829, 26830, 26831, 26832, 26833, 26834, 26835, 26836, 26837, 26838, 26839, 26840, 26841
 26842, 26843, 26844, 26845, 26846, 26847, 26904, 26905, 26906, 26907, 27260, 27261, 27262, 27344, 27345, 27412
 27413, 27963, 27964
*Elset, elset=_PICKEDSET36, internal, instance=PART-1-1
 15314, 15361, 15362, 15363, 15364, 15365, 15366, 15367, 15368, 15369, 15370, 15371, 15372, 15373, 15374, 15378
 15379, 15380, 15381, 15382, 15383, 15384, 15385, 15386, 15387, 15388, 15389, 15390, 15391, 15392, 15393, 15394
 15395, 15396, 15397, 15398, 15399, 15400, 15401, 15402, 15403, 15404, 15458, 15459, 15460, 15461, 15462, 15463
 15464, 15465, 15466, 15467, 15468, 15480, 15481, 15482, 15483, 15484, 15485, 15486, 15487, 15488, 15489, 15490
 15491, 15492, 15493, 15494, 15495, 15496, 15497, 15498, 15499, 15500, 15501, 15502, 15503, 15504, 15505, 15506
 15507, 15508, 15509, 15510, 15511, 15512, 15513, 15514, 15515, 15516, 15517, 15518, 15519, 15520, 15521, 15522
 15523, 15524, 15525, 15526, 15527, 15528, 15529, 15534, 15535, 15543, 15546, 15547, 15548, 15549, 15551, 15552
 16224, 16225, 16226, 16227, 16228, 16229, 17994, 17995, 18079, 18080, 18081, 18082, 18099, 18100, 18101, 18102
 18103, 18104, 18105, 18106, 18107, 18108, 18109, 18110, 18111, 18112, 18113, 18114, 18115, 18116, 18117, 18118
 18119, 18120, 18121, 18122, 18123, 18124, 18125, 18126, 18127, 18128, 18129, 18130, 18131, 18132, 18133, 18134
 18135, 18136, 18137, 18138, 18139, 18140, 18141, 18142, 18143, 18144, 18145, 18146, 18147, 18148, 18149, 18150
 18151, 18152, 18153, 18154, 18155, 18156, 18157, 18158, 18159, 18160, 18161, 18162, 18163, 18164, 18165, 18166
 18167, 18168, 18169, 18170, 18171, 18172, 18173, 18174, 18175, 18176, 18177, 18178, 18179, 18180, 18181, 18182
 18183, 18184, 18185, 18186, 18187, 18188, 18189, 18190, 18191, 18192, 18193, 18194, 18195, 18196, 18197, 18198
 18199, 18200, 18201, 18202, 18203, 18204, 18205, 18206, 18207, 18208, 18209, 18210, 18211, 18212, 18213, 18214
 18215, 18216, 18217, 18218, 18219, 18220, 18221, 18222, 18223, 18224, 18225, 18226, 18227, 18228, 18229, 18230
 18231, 18232, 18233, 18234, 18235, 18236, 18237, 18238, 18239, 18240, 18241, 18242, 18243, 18244, 18245, 18246
 18247, 18248, 18249, 18250, 18251, 18252, 18253, 18254, 18255, 18256, 27263, 27264, 27414, 27415, 31118, 31119
*Elset, elset=_PICKEDSET37, internal, instance=PART-1-1
 15600, 15601, 15602, 15603, 15604, 15605, 15606, 15607, 15608, 15609, 15610, 15611, 15612, 15613, 15614, 15615
 15616, 15617, 15618, 15619, 15620, 15621, 15622, 15623, 15624, 15625, 15626, 15627, 15628, 15629, 15630, 15631
 15632, 15637, 15638, 15640, 15641, 15648, 15649, 15652, 15668, 15669, 15670, 15671, 15672, 15673, 15674, 15675
 15676, 15677, 15678, 15679, 15680, 15681, 15682, 15683, 15684, 15685, 15686, 15687, 15688, 15689, 15690, 15691
 15692, 15693, 15694, 15695, 15696, 15697, 15698, 15699, 15700, 15701, 15702, 15703, 15704, 15705, 15706, 15707
 15708, 15709, 15710, 15711, 15712, 15713, 15714, 15715, 15716, 15717, 15718, 15719, 15720, 15721, 15722, 15723
 15724, 15725, 15726, 15727, 15728, 15729, 15730, 15731, 15732, 15733, 15734, 15735, 15736, 15737, 15738, 15739
 15740, 15741, 15742, 15743, 15744, 15745, 15746, 15747, 15748, 15749, 15750, 15751, 15752, 15753, 15754, 15755
 15756, 15757, 15758, 15759, 15760, 15761, 15762, 15763, 15764, 15765, 15766, 15767, 15768, 15769, 15770, 15771
 15772, 15773, 15774, 15775, 15776, 15777, 15778, 15779, 15780, 15781, 15782, 15783, 15784, 15785, 15786, 15787
 15788, 15789, 15790, 15791, 15792, 15793, 15794, 15795, 15796, 15797, 15798, 15799, 15800, 15801, 15802, 15803
 15804, 15805, 15806, 15807, 15808, 15809, 15810, 15811, 15812, 15813, 15814, 15815, 15816, 15817, 15818, 15819
 15820, 15821, 15822, 15823, 15824, 15825, 15826, 15827, 15828, 15829, 15830, 16161, 16162, 16163, 16164, 16165
 16166, 16167, 16168, 16486, 16487, 18093, 18094, 18095, 18096, 18097, 18098, 25476, 25477, 25478, 25479, 25480
 25481, 25482, 25483, 25484, 25485, 25486, 25487, 25488, 25489, 25490, 25491, 25492, 25493, 25494, 25495, 25496
 25497, 25498, 25499, 25500, 25501, 25502, 25503, 25504, 25505, 25506, 25507, 25508, 25509, 25510, 25511, 25512
 25513, 25514, 25515, 25516, 25517, 25518, 25519, 25520, 25521, 25522, 25523, 25524, 25525, 25526, 25527, 25528
 25529, 25530, 25531, 25532, 25533, 25534, 25535, 25536, 25537, 25538, 25539, 25540, 25541, 25542, 26406, 26407
 26408, 26409, 26410, 26411, 26412, 26413, 26414, 26415, 26416, 26417, 26418, 26419, 26420, 26421, 26422, 26423
 26424, 26425, 26426, 26427, 26428, 26429, 26430, 26431, 26432, 26433, 26434
*Elset, elset=_PICKEDSET4593, internal, instance=PART-1-1
 18745, 18746, 18747, 18748, 18749, 18750, 18751, 18752, 18753, 18754, 18755, 18756, 18757, 18758, 18759, 18760
 18761, 18762, 18763, 18764, 18765, 18766, 18767, 18768, 18769, 18770, 18771, 18772, 18773, 18774, 18775, 18776
 18777, 18778, 18779, 18780, 18781, 18782, 18783, 18784, 18785, 18786, 18787, 18788, 18789, 18790, 18791, 18792
 18793, 18794, 18795, 18796, 18852, 18853, 18854, 18897, 18898, 18899, 18900, 18901, 18902, 18903, 18904, 18905
 18906, 18907, 18908, 18909, 18910, 18911, 18912, 18913, 18914, 18915, 18916, 18917, 18918, 18919, 18920, 18921
 18922, 18923, 18924, 18925, 18926, 18927, 18928, 18929, 18930, 18931, 18932, 18933, 18934, 18935, 18936, 18937
 18938, 18939, 18940, 18941, 18942, 18943, 18944, 18945, 18946, 18947, 18948, 18973, 18974, 18975, 19089, 19090
 19091, 19250, 19251, 19252, 19253, 19377, 19378, 19379, 19380, 19381, 19382, 19383, 19384, 19385, 19386, 19387
 19388, 19389, 19390, 19391, 19392, 19393, 19394, 19395, 19396, 19397, 19398, 19399, 19400, 19401, 19402, 19403
 19404, 19405, 19406, 19407, 19408, 19409, 19410, 19411, 19412, 19413, 19414, 19415, 19416, 19417, 19418, 19419
 19420, 19421, 19422, 19423, 19424, 19425, 19426, 19427, 19428, 19429, 19430, 19431, 19432, 19433, 19434, 19435
 19436, 19437, 19438, 19439, 19440, 19441, 19442, 19443, 19444, 19445, 19446, 19447, 19448, 19449, 19450, 19451
 19452, 19453, 19454, 19455, 19456, 19457, 19458, 19459, 19460, 19461, 19462, 19463, 19464, 19465, 19466, 19467
 19468, 19469, 19470, 19471, 19472, 19473, 19474, 19475, 19476, 19477, 19478, 19479, 19480, 19481, 19482, 19483
 19484, 19485, 19486, 19487, 19488, 19489, 19490, 19491, 19492, 19493, 19494, 19495, 19496, 19497, 19498, 19499
 19500, 19501, 19502, 19503, 19504, 19505, 19506, 19507, 19508, 19509, 19510, 19511, 19512, 19513, 19514, 19515
 19516, 19517, 19518, 19519, 19520, 19521, 19522, 19523, 19524, 19525, 19526, 19527, 19528, 19529, 19530, 19531
 19532, 19533, 19534, 19535, 19536, 19537, 19538, 19539, 19540, 19541, 19542, 19543, 19544, 19545, 19546, 19547
 19548, 19549, 19550, 19551, 19552, 19553, 19554, 19555, 19556, 19557, 19558, 19559, 19560, 19561, 19562, 19563
 19564, 19565, 19566, 19567, 19568, 19569, 19570, 19571, 19572, 19573, 19574, 19575, 19576, 19577, 19578, 19579
** ... 90 like lines cut
*Nset, nset=_T-INITIAL, internal, instance=PART-1-1
  8809,  8821,  8822,  8828,  8837,  8838,  8995,  9001,  9002,  9003,  9021,  9023,  9290,  9296,  9305,  9306
  9344,  9347,  9348,  9350,  9352,  9380,  9382,  9385,  9389,  9430,  9556,  9557,  9558,  9559,  9560,  9561
  9562,  9563,  9564,  9565,  9566,  9567,  9568,  9569,  9570,  9571,  9572,  9573,  9574,  9575,  9576,  9577
  9578,  9579,  9580,  9581,  9582,  9583,  9584,  9585,  9586,  9587,  9588,  9589,  9590,  9591,  9592,  9593
  9594,  9595,  9596,  9597,  9598,  9599,  9600,  9601,  9602,  9603,  9604,  9605,  9606,  9607,  9608,  9609
  9610,  9611,  9612,  9613,  9614,  9615,  9616,  9617,  9618,  9619,  9620,  9621,  9622,  9623,  9624,  9625
  9626,  9627,  9628,  9629,  9630,  9631,  9632,  9633,  9634,  9635,  9636,  9637,  9638,  9639,  9640,  9641
  9642,  9643,  9644,  9645,  9646,  9647,  9648,  9649,  9650,  9651,  9652,  9653,  9654,  9655,  9656,  9657
  9658,  9659,  9660,  9661,  9662,  9663,  9664,  9665,  9666,  9667,  9668,  9669,  9670,  9671,  9672,  9673
  9674,  9675,  9676,  9677,  9678,  9679,  9680,  9681,  9682,  9683,  9684,  9685,  9686,  9687,  9688,  9689
  9690,  9691,  9692,  9693,  9694,  9695,  9696,  9697,  9698,  9699,  9700,  9701,  9702,  9703,  9704,  9705
  9706,  9707,  9708,  9709,  9710,  9711,  9712,  9713,  9714,  9715,  9716,  9717,  9718,  9719,  9720,  9721
  9722,  9723,  9724,  9725,  9726,  9727,  9728,  9729,  9730,  9731,  9732,  9733,  9734,  9735,  9736,  9737
  9738,  9739,  9740,  9741,  9742,  9743,  9744,  9745,  9746,  9747,  9748,  9749,  9750,  9751,  9752,  9753
  9754,  9755,  9756,  9757,  9758,  9759,  9760,  9761,  9762,  9763,  9764,  9765,  9766,  9767,  9768,  9769
  9770,  9771,  9772,  9773,  9774,  9775,  9776,  9777,  9778,  9779,  9780,  9781,  9782,  9783,  9784,  9785
  9786,  9787,  9788,  9789,  9790,  9791,  9792,  9793,  9794,  9795,  9796,  9797,  9798,  9799,  9800,  9801
  9802,  9803,  9804,  9805,  9806,  9807,  9808,  9809,  9810,  9811,  9812,  9813,  9814,  9815,  9816,  9817
  9818,  9819,  9820,  9821,  9822,  9823,  9824,  9825,  9826,  9827,  9828,  9829,  9830,  9831,  9832,  9833
  9834,  9835,  9836,  9837,  9838,  9839,  9840,  9841,  9842,  9843,  9844,  9845,  9846,  9847,  9848,  9849
** ... 35 like lines cut
*Elset, elset=__PICKEDSURF43_SPOS, internal, instance=PART-1-1
 18724, 18725, 18726, 18727, 18728, 18729, 18730, 18731, 18732, 18733, 18734, 18735, 18736, 18737, 18738, 18739
 18740, 18741, 18742, 18743, 18744, 18745, 18746, 18747, 18748, 18749, 18750, 18751, 18752, 18753, 18754, 18755
 18756, 18757, 18758, 18759, 18760, 18761, 18762, 18763, 18764, 18765, 18766, 18767, 18768, 18769, 18770, 18771
 18772, 18773, 18774, 18775, 18776, 18777, 18778, 18779, 18780, 18781, 18782, 18783, 18784, 18785, 18786, 18787
 18788, 18789, 18790, 18791, 18792, 18793, 18794, 18795, 18796, 18797, 18798, 18799, 18800, 18801, 18802, 18803
 18804, 18805, 18806, 18807, 18808, 18809, 18810, 18811, 18812, 18813, 18814, 18815, 18816, 18817, 18818, 18819
 18820, 18821, 18822, 18823, 18824, 18825, 18826, 18827, 18828, 18829, 18830, 18831, 18832, 18833, 18834, 18835
 18836, 18837, 18838, 18839, 18840, 18841, 18842, 18843, 18844, 18845, 18846, 18847, 18848, 18849, 18850, 18851
 18852, 18853, 18854, 18855, 18856, 18857, 18858, 18859, 18860, 18861, 18862, 18863, 18864, 18865, 18866, 18867
 18868, 18869, 18870, 18871, 18872, 18873, 18874, 18875, 18876, 18877, 18878, 18879, 18880, 18881, 18882, 18883
 18884, 18885, 18886, 18887, 18888, 18889, 18890, 18891, 18892, 18893, 18894, 18895, 18896, 18897, 18898, 18899
 18900, 18901, 18902, 18903, 18904, 18905, 18906, 18907, 18908, 18909, 18910, 18911, 18912, 18913, 18914, 18915
 18916, 18917, 18918, 18919, 18920, 18921, 18922, 18923, 18924, 18925, 18926, 18927, 18928, 18929, 18930, 18931
 18932, 18933, 18934, 18935, 18936, 18937, 18938, 18939, 18940, 18941, 18942, 18943, 18944, 18945, 18946, 18947
 18948, 18949, 18950, 18951, 18952, 18953, 18954, 18955, 18956, 18957, 18958, 18959, 18960, 18961, 18962, 18963
 18964, 18965, 18966, 18967, 18968, 18969, 18970, 18971, 18972, 18973, 18974, 18975, 18976, 18977, 18978, 18979
 18980, 18981, 18982, 18983, 18984, 18985, 18986, 18987, 18988, 18989, 18990, 18991, 18992, 18993, 18994, 18995
 18996, 18997, 18998, 18999, 19000, 19001, 19002, 19003, 19004, 19005, 19006, 19007, 19008, 19009, 19010, 19011
 19012, 19013, 19014, 19015, 19016, 19017, 19018, 19019, 19020, 19021, 19022, 19023, 19024, 19025, 19026, 19027
 19028, 19029, 19030, 19031, 19032, 19033, 19034, 19035, 19036, 19037, 19038, 19039, 19040, 19041, 19042, 19043
** ... 156 like lines cut
*Elset, elset=CSD, instance=PART-1-1
 18724, 18725, 18726, 18727, 18728, 18729, 18730, 18731, 18732, 18733, 18734, 18735, 18736, 18737, 18738, 18739
 18740, 18741, 18742, 18743, 18744, 18745, 18746, 18747, 18748, 18749, 18750, 18751, 18752, 18753, 18754, 18755
 18756, 18757, 18758, 18759, 18760, 18761, 18762, 18763, 18764, 18765, 18766, 18767, 18768, 18769, 18770, 18771
 18772, 18773, 18774, 18775, 18776, 18777, 18778, 18779, 18780, 18781, 18782, 18783, 18784, 18785, 18786, 18787
 18788, 18789, 18790, 18791, 18792, 18793, 18794, 18795, 18796, 18797, 18798, 18799, 18800, 18801, 18802, 18803
 18804, 18805, 18806, 18807, 18808, 18809, 18810, 18811, 18812, 18813, 18814, 18815, 18816, 18817, 18818, 18819
 18820, 18821, 18822, 18823, 18824, 18825, 18826, 18827, 18828, 18829, 18830, 18831, 18832, 18833, 18834, 18835
 18836, 18837, 18838, 18839, 18840, 18841, 18842, 18843, 18844, 18845, 18846, 18847, 18848, 18849, 18850, 18851
 18852, 18853, 18854, 18855, 18856, 18857, 18858, 18859, 18860, 18861, 18862, 18863, 18864, 18865, 18866, 18867
 18868, 18869, 18870, 18871, 18872, 18873, 18874, 18875, 18876, 18877, 18878, 18879, 18880, 18881, 18882, 18883
 18884, 18885, 18886, 18887, 18888, 18889, 18890, 18891, 18892, 18893, 18894, 18895, 18896, 18897, 18898, 18899
 18900, 18901, 18902, 18903, 18904, 18905, 18906, 18907, 18908, 18909, 18910, 18911, 18912, 18913, 18914, 18915
 18916, 18917, 18918, 18919, 18920, 18921, 18922, 18923, 18924, 18925, 18926, 18927, 18928, 18929, 18930, 18931
 18932, 18933, 18934, 18935, 18936, 18937, 18938, 18939, 18940, 18941, 18942, 18943, 18944, 18945, 18946, 18947
 18948, 18949, 18950, 18951, 18952, 18953, 18954, 18955, 18956, 18957, 18958, 18959, 18960, 18961, 18962, 18963
 18964, 18965, 18966, 18967, 18968, 18969, 18970, 18971, 18972, 18973, 18974, 18975, 18976, 18977, 18978, 18979
 18980, 18981, 18982, 18983, 18984, 18985, 18986, 18987, 18988, 18989, 18990, 18991, 18992, 18993, 18994, 18995
 18996, 18997, 18998, 18999, 19000, 19001, 19002, 19003, 19004, 19005, 19006, 19007, 19008, 19009, 19010, 19011
 19012, 19013, 19014, 19015, 19016, 19017, 19018, 19019, 19020, 19021, 19022, 19023, 19024, 19025, 19026, 19027
 19028, 19029, 19030, 19031, 19032, 19033, 19034, 19035, 19036, 19037, 19038, 19039, 19040, 19041, 19042, 19043
** ... 156 like lines cut
*Elset, elset=CSD1, instance=PART-1-1
 18727, 18728, 18729, 18730, 18731, 18732, 18733, 18734, 18735, 18736, 18737, 18738, 18739, 18740, 18741, 18742
 18743, 18744, 18745, 18746, 18747, 18748, 18749, 18750, 18751, 18752, 18753, 18754, 18755, 18756, 18757, 18758
 18759, 18760, 18761, 18762, 18763, 18764, 18765, 18766, 18767, 18768, 18769, 18770, 18771, 18772, 18773, 18774
 18775, 18776, 18777, 18778, 18779, 18780, 18781, 18782, 18783, 18784, 18785, 18786, 18787, 18788, 18789, 18790
 18791, 18792, 18793, 18794, 18795, 18796, 18797, 18798, 18799, 18800, 18801, 18802, 18803, 18804, 18805, 18806
 18807, 18808, 18809, 18810, 18811, 18812, 18813, 18814, 18815, 18816, 18817, 18818, 18819, 18820, 18821, 18822
 18823, 18824, 18825, 18826, 18827, 18828, 18829, 18830, 18831, 18832, 18833, 18834, 18835, 18836, 18837, 18838
 18839, 18840, 18841, 18842, 18843, 18844, 18845, 18846, 18847, 18848, 18849, 18850, 18851, 18852, 18853, 18854
 19086, 19087, 19088, 19091, 19093, 19094, 19095, 19096, 19370, 19371, 19372, 19373, 19374, 19375, 19376, 19377
 19378, 19379, 19384, 19385, 19594, 19595, 19596, 19597, 19598, 19599, 19600, 19601, 19602, 19603, 19604, 19605
 19606, 19607, 19608, 19609, 19610, 19611, 19612, 19613, 19614, 19615, 19616, 19617, 19618, 19619, 19620, 19621
 19622, 19623, 19624, 19625, 19626, 19627, 19628, 19629, 19630, 19631, 19632, 19633, 19634, 19635, 19636, 19637
 19638, 19639, 19640, 19641, 19642, 19643, 19644, 19645, 19646, 19647, 19648, 19649, 19650, 19651, 19652, 19653
 19654, 19655, 19656, 19657, 19658, 19659, 19660, 19661, 19662, 19663, 19664, 19665, 19666, 19667, 19668, 19687
 19690, 19691, 19693, 19694, 19696, 19697, 19699, 19700, 19702, 19703, 19704, 19705, 19706, 19707, 19708, 19709
 19710, 19711, 19712, 19713, 19714, 19715, 19716, 19717, 19718, 19719, 19720, 19724, 19725, 19726, 19727, 19728
 19729, 19730, 19731, 19732, 19733, 19734, 19735, 19736, 19737, 19738, 19739, 19740, 19741, 19742, 19743, 19744
 19745, 19746, 19747, 19748, 19749, 19750, 19751, 19752, 19753, 19754, 19755, 19756, 19757, 19758, 19759, 19760
 19761, 19762, 19763, 19764, 19765, 19766, 19767, 19768, 19769, 19770, 19771, 19772, 19773, 19774, 19775, 19776
 19777, 19778, 19779, 19780, 19781, 19782, 19783, 19784, 19785, 19786, 19787, 19788, 19789, 19790, 19791, 19963
** ... 16 like lines cut
*Elset, elset=CSD2, instance=PART-1-1
 18855, 18856, 18857, 18858, 18859, 18860, 18861, 18862, 18863, 18864, 18865, 18866, 18867, 18868, 18869, 18870
 18871, 18872, 18873, 18874, 18875, 18876, 18877, 18878, 18879, 18880, 18881, 18882, 18883, 18884, 18885, 18886
 18887, 18888, 18889, 18890, 18891, 18892, 18893, 18894, 18895, 18896, 18897, 18898, 18899, 18900, 18901, 18902
 18903, 18904, 18905, 18906, 18907, 18908, 18909, 18910, 18911, 18912, 18913, 18914, 18915, 18916, 18917, 18918
 18919, 18920, 18921, 18922, 18923, 18924, 18925, 18926, 18927, 18928, 18929, 18930, 18931, 18932, 18933, 18934
 18935, 18936, 18937, 18938, 18939, 18940, 18941, 18942, 18943, 18944, 18945, 18946, 18947, 18948, 18949, 18950
 18951, 18952, 18953, 18954, 18955, 18956, 18957, 18958, 18959, 18960, 18961, 18962, 18963, 18964, 18965, 18966
 18967, 18968, 18969, 18970, 18971, 18972, 18973, 18974, 18975, 19244, 19246, 19248, 19249, 19252, 19253, 19254
 19255, 19256, 19364, 19365, 19366, 19367, 19368, 19369, 19380, 19381, 19382, 19383, 19395, 19396, 19397, 19398
 19399, 19400, 19401, 19402, 19403, 19404, 19405, 19406, 19407, 19408, 19409, 19410, 19411, 19412, 19413, 19414
 19415, 19416, 19417, 19418, 19419, 19420, 19421, 19422, 19423, 19424, 19425, 19426, 19427, 19428, 19429, 19430
 19431, 19432, 19433, 19434, 19435, 19436, 19437, 19438, 19439, 19440, 19441, 19442, 19443, 19444, 19445, 19446
 19447, 19448, 19449, 19450, 19451, 19452, 19453, 19454, 19455, 19456, 19457, 19458, 19459, 19460, 19461, 19462
 19463, 19464, 19465, 19466, 19467, 19468, 19486, 19489, 19491, 19494, 19496, 19498, 19500, 19502, 19504, 19506
 19507, 19508, 19509, 19510, 19511, 19512, 19513, 19514, 19515, 19516, 19517, 19518, 19519, 19520, 19521, 19522
 19523, 19524, 19525, 19526, 19527, 19528, 19529, 19530, 19531, 19532, 19533, 19534, 19535, 19536, 19537, 19538
 19539, 19540, 19541, 19542, 19543, 19544, 19545, 19546, 19547, 19548, 19549, 19550, 19551, 19552, 19553, 19554
 19555, 19556, 19557, 19558, 19559, 19560, 19561, 19562, 19563, 19564, 19565, 19566, 19567, 19568, 19569, 19570
 19571, 19572, 19573, 19574, 19575, 19576, 19577, 19578, 19579, 19580, 20156, 20161, 20566, 20568, 20578, 20587
 20768, 20769, 20770, 20771, 20772, 20773, 20774, 20775, 20776, 20777, 20778, 20779, 20780, 20781, 20782, 20783
** ... 14 like lines cut
*Elset, elset=CSD3, instance=PART-1-1
 18727, 18728, 18729, 18847, 18848, 18849, 18976, 18977, 18978, 18979, 18980, 18981, 18982, 18983, 18984, 18985
 18986, 18987, 18988, 18989, 18990, 18991, 18992, 18993, 18994, 18995, 18996, 18997, 18998, 18999, 19000, 19001
 19002, 19003, 19004, 19005, 19006, 19007, 19008, 19009, 19010, 19011, 19012, 19013, 19014, 19015, 19016, 19017
 19018, 19019, 19020, 19021, 19022, 19023, 19024, 19025, 19026, 19027, 19028, 19029, 19030, 19031, 19032, 19033
 19034, 19035, 19036, 19037, 19038, 19039, 19040, 19041, 19042, 19043, 19044, 19045, 19046, 19047, 19048, 19049
 19050, 19051, 19052, 19053, 19054, 19055, 19056, 19057, 19058, 19059, 19060, 19061, 19062, 19063, 19064, 19065
 19066, 19067, 19068, 19069, 19070, 19071, 19072, 19073, 19074, 19075, 19076, 19077, 19078, 19079, 19080, 19081
 19082, 19083, 19084, 19085, 19086, 19087, 19088, 19089, 19090, 19091, 19092, 19093, 19094, 19095, 19096, 19097
 19098, 19099, 19100, 19101, 19102, 19103, 19104, 19105, 19106, 19107, 19108, 19109, 19110, 19111, 19112, 19113
 19114, 19115, 19116, 19117, 19118, 19119, 19120, 19121, 19122, 19123, 19124, 19125, 19126, 19127, 19128, 19129
 19130, 19131, 19132, 19133, 19134, 19135, 19136, 19137, 19138, 19139, 19140, 19141, 19142, 19143, 19144, 19145
 19146, 19147, 19148, 19149, 19150, 19151, 19152, 19153, 19154, 19155, 19156, 19157, 19158, 19159, 19160, 19161
 19162, 19163, 19164, 19165, 19166, 19167, 19168, 19169, 19170, 19385, 19581, 19582, 19583, 19584, 19585, 19586
 19587, 19588, 19589, 19590, 19591, 19592, 19593, 19594, 19597, 19598, 19600, 19603, 19604, 19606, 19609, 19610
 19612, 19615, 19616, 19618, 19621, 19622, 19625, 19669, 19670, 19671, 19672, 19673, 19674, 19675, 19676, 19677
 19678, 19679, 19680, 19681, 19682, 19683, 19684, 19685, 19686, 19687, 19688, 19689, 19690, 19691, 19692, 19693
 19694, 19695, 19696, 19697, 19698, 19699, 19700, 19701, 19702, 19703, 19704, 19705, 19706, 19707, 19708, 19709
 19710, 19711, 19712, 19713, 19714, 19715, 19716, 19717, 19718, 19719, 19720, 19721, 19722, 19723, 19792, 19793
 19794, 19795, 19796, 19797, 19798, 19799, 19800, 19802, 19803, 19804, 19805, 19806, 19807, 19808, 19809, 19810
 19811, 19812, 19813, 19814, 19815, 19816, 19817, 19818, 19819, 19820, 19821, 19822, 19823, 19824, 19825, 19826
** ... 29 like lines cut
*Elset, elset=CSD4, instance=PART-1-1
 18724, 18725, 18726, 19171, 19172, 19173, 19174, 19175, 19176, 19177, 19178, 19179, 19180, 19181, 19182, 19183
 19184, 19185, 19186, 19187, 19188, 19189, 19190, 19191, 19192, 19193, 19194, 19195, 19196, 19197, 19198, 19199
 19200, 19201, 19202, 19203, 19204, 19205, 19206, 19207, 19208, 19209, 19210, 19211, 19212, 19213, 19214, 19215
 19216, 19217, 19218, 19219, 19220, 19221, 19222, 19223, 19224, 19225, 19226, 19227, 19228, 19229, 19230, 19231
 19232, 19233, 19234, 19235, 19236, 19237, 19238, 19239, 19240, 19241, 19242, 19243, 19244, 19245, 19246, 19247
 19248, 19249, 19250, 19251, 19252, 19253, 19254, 19255, 19256, 19257, 19258, 19259, 19260, 19261, 19262, 19263
 19264, 19265, 19266, 19267, 19268, 19269, 19270, 19271, 19272, 19273, 19274, 19275, 19276, 19277, 19278, 19279
 19280, 19281, 19282, 19283, 19284, 19285, 19286, 19287, 19288, 19289, 19290, 19291, 19292, 19293, 19294, 19295
 19296, 19297, 19298, 19299, 19300, 19301, 19302, 19303, 19304, 19305, 19306, 19307, 19308, 19309, 19310, 19311
 19312, 19313, 19314, 19315, 19316, 19317, 19318, 19319, 19320, 19321, 19322, 19323, 19324, 19325, 19326, 19327
 19328, 19329, 19330, 19331, 19332, 19333, 19334, 19335, 19336, 19337, 19338, 19339, 19340, 19341, 19342, 19343
 19344, 19345, 19346, 19347, 19348, 19349, 19350, 19351, 19352, 19353, 19354, 19355, 19356, 19357, 19358, 19359
 19360, 19361, 19362, 19363, 19386, 19387, 19388, 19389, 19390, 19391, 19392, 19393, 19394, 19469, 19470, 19471
 19472, 19473, 19474, 19475, 19476, 19477, 19478, 19479, 19480, 19481, 19482, 19483, 19484, 19485, 19486, 19487
 19488, 19489, 19490, 19491, 19492, 19493, 19494, 19495, 19496, 19497, 19498, 19499, 19500, 19501, 19502, 19503
 19504, 19505, 19506, 19507, 19508, 19509, 19510, 19511, 19801, 20141, 20142, 20143, 20144, 20145, 20146, 20147
 20148, 20149, 20150, 20151, 20152, 20153, 20154, 20155, 20156, 20157, 20158, 20159, 20160, 20161, 20162, 20163
 20164, 20165, 20166, 20167, 20168, 20169, 20170, 20171, 20172, 20173, 20174, 20175, 20176, 20177, 20178, 20179
 20180, 20181, 20182, 20183, 20184, 20185, 20186, 20187, 20188, 20189, 20190, 20191, 20192, 20193, 20194, 20195
 20196, 20197, 20198, 20199, 20200, 20201, 20202, 20203, 20204, 20205, 20206, 20207, 20208, 20209, 20210, 20211
** ... 26 like lines cut
*Elset, elset=CSD5, instance=PART-1-1
 29630, 29631, 29632, 29633, 29634, 29635, 29636, 29637, 29638, 29639, 29640, 29641, 29642, 29643, 29644, 29645
 29646, 29647, 29648, 29649, 29650, 29651, 29652, 29653, 29657, 29658, 29659, 29660, 29661, 29662, 29663, 29664
 29665, 29666, 29667, 29668, 29669, 29670, 29671, 29672, 29673, 29674, 29675, 29676, 29677, 29678, 29679, 29680
 29884, 29885, 29886, 29887, 29888, 29889, 29890, 29891, 29892, 29893, 29894, 29895, 29896, 29897, 29898, 29899
 29900, 29901, 29902, 29903, 29904, 29905, 29906, 29909, 29910, 29911, 29912, 29915, 29916, 29917
*Elset, elset=CSD6, instance=PART-1-1
 29574, 29575, 29576, 29577, 29578, 29579, 29580, 29581, 29582, 29583, 29584, 29585, 29586, 29587, 29588, 29589
 29590, 29591, 29592, 29593, 29594, 29595, 29596, 29597, 29598, 29599, 29600, 29601, 29602, 29603, 29604, 29605
 29606, 29607, 29608, 29609, 29610, 29611, 29612, 29613, 29759, 29762, 29764, 29765, 29766, 29767, 29768, 29769
 29770, 29771, 29772, 29773, 29774, 29775, 29776, 29777, 29778, 29779, 29780, 29781, 29782, 29783, 29784, 29785
 29786, 29787, 29788, 29789, 29813, 29817, 29818, 29819, 29820, 29821, 29822, 29823, 29824, 29825, 29826, 29827
 29828, 29829, 29830, 29831, 29832, 29833, 29834, 29835, 29836, 29837, 29838, 29839, 29840
*Elset, elset=CSD7, instance=PART-1-1
 29568, 29569, 29570, 29571, 29572, 29573, 29574, 29575, 29576, 29579, 29614, 29615, 29616, 29617, 29618, 29619
 29620, 29621, 29622, 29623, 29624, 29625, 29626, 29627, 29628, 29629, 29736, 29737, 29738, 29739, 29740, 29741
 29742, 29743, 29744, 29745, 29746, 29747, 29748, 29749, 29750, 29751, 29752, 29753, 29754, 29755, 29756, 29757
 29758, 29759, 29760, 29761, 29762, 29763, 29764, 29765, 29766, 29771, 29790, 29791, 29792, 29793, 29794, 29795
 29796, 29797, 29798, 29799, 29800, 29801, 29802, 29803, 29804, 29805, 29806, 29807, 29808, 29809, 29810, 29811
 29812, 29813, 29814, 29815, 29816, 29817, 29818, 29820, 29919, 29920, 29923, 29925, 29926, 29927
*Elset, elset=CSD8, instance=PART-1-1
 29554, 29555, 29556, 29557, 29558, 29559, 29560, 29561, 29562, 29563, 29564, 29565, 29566, 29567, 29651, 29652
 29653, 29654, 29655, 29656, 29677, 29678, 29679, 29680, 29681, 29682, 29683, 29684, 29685, 29686, 29687, 29688
 29689, 29690, 29691, 29692, 29693, 29694, 29695, 29696, 29697, 29698, 29699, 29700, 29701, 29702, 29703, 29704
 29705, 29706, 29707, 29708, 29709, 29710, 29711, 29712, 29713, 29714, 29715, 29716, 29717, 29718, 29719, 29720
 29721, 29722, 29723, 29724, 29725, 29726, 29727, 29728, 29729, 29730, 29731, 29732, 29733, 29734, 29735, 29907
 29908, 29909, 29910, 29911, 29912, 29913, 29914, 29915, 29916, 29917, 29918, 29921, 29922
*Elset, elset=CSD9, instance=PART-1-1
 29567, 29684, 29733, 29734, 29735, 29758, 29792, 29918, 29919, 29920, 29921, 29922, 29923, 29925, 29926, 29927
*Elset, elset=__PickedSurf46_SPOS, internal, instance=PART-1-1
 14776, 14777, 14778, 14779, 14780, 14781, 14782, 14783, 14784, 14785, 14786, 14787, 14788, 14789, 14790, 14791
 14792, 14793, 14794, 14795, 14796, 14797, 14798, 14799, 14800, 14801, 14802, 14803, 14804, 14805, 14806, 14807
 14808, 14809, 14810, 14811, 14812, 14813, 14814, 14815, 14816, 14817, 14818, 14819, 14820, 14821, 14822, 14823
 14824, 14825, 14826, 14827, 14828, 14829, 14830, 14831, 14832, 14833, 14834, 14835, 14836, 14837, 14838, 14839
 14840, 14841, 14842, 14843, 14844, 14845, 14846, 14847, 14848, 14849, 14850, 14851, 14852, 14853, 14854, 14855
 14856, 14857, 14858, 14859, 14860, 14861, 14862, 14863, 14864, 14865, 14866, 14867, 14868, 14869, 14870, 14871
 14872, 14873, 14874, 14875, 14876, 14877, 14878, 14879, 14880, 14881, 14882, 14883, 14884, 14885, 14886, 14887
 14888, 14889, 14890, 14891, 14892, 14893, 14894, 14895, 14896, 14897, 14898, 14899, 14900, 14901, 14902, 14903
 14904, 14905, 14906, 14907, 14908, 14909, 14910, 14911, 14912, 14913, 14914, 14915, 14916, 14917, 14918, 14919
 14920, 14921, 14922, 14923, 14924, 14925, 14926, 14927, 14928, 14929, 14930, 14931, 14932, 14933, 14934, 14935
 14936, 14937, 14938, 14939, 14940, 14941, 14942, 14943, 14944, 14945, 14946, 14947, 14948, 14949, 14950, 14951
 14952, 14953, 14954, 14955, 14956, 14957, 14958, 14959, 14960, 14961, 14962, 14963, 14964, 14965, 14966, 14967
 14968, 14969, 14970, 14971, 14972, 14973, 14974, 14975, 14976, 14977, 14978, 14979, 14980, 14981, 14982, 14983
 14984, 14985, 14986, 14987, 14988, 14989, 14990, 14991, 14992, 14993, 14994, 14995, 14996, 14997, 14998, 14999
 15000, 15001, 15002, 15003, 15004, 15005, 15006, 15007, 15008, 15009, 15010, 15011, 15012, 15013, 15014, 15015
 15016, 15017, 15018, 15019, 15020, 15021, 15022, 15023, 15024, 15025, 15026, 15027, 15028, 15029, 15030, 15031
 15032, 15033, 15034, 15035, 15036, 15037, 15038, 15039, 15040, 15041, 15042, 15043, 15044, 15045, 15046, 15047
 15048, 15049, 15050, 15051, 15052, 15053, 15054, 15055, 15056, 15057, 15058, 15059, 15060, 15061, 15062, 15063
 15064, 15065, 15066, 15067, 15068, 15069, 15070, 15071, 15072, 15073, 15074, 15075, 15076, 15077, 15078, 15079
 15080, 15081, 15082, 15083, 15084, 15085, 15086, 15087, 15088, 15089, 15090, 15091, 15092, 15093, 15094, 15095
** ... 363 like lines cut
*Surface, type=ELEMENT, name=_PickedSurf46, internal
__PickedSurf46_SPOS, SPOS
*End Assembly
** 
** MATERIALS
** 
*Material, name=ALUM
*Density
2700.,
*Elastic
 7e+10, 0.33
** ----------------------------------------------------------------
** 
** STEP: Step-1
** 
*Step, name=Step-1
*Static
1., 1., 1e-05, 1.
** 
** LOADS
** 
** Name: Load-2   Type: Pressure
**Dsload
**_PickedSurf46, P, 1.
*Dsload, EXTFILE=starccm
_PickedSurf46, D:\Sources\ICARUS_Models\CFD\aircraft\Falcon2000S
** 
** OUTPUT REQUESTS
** 
*Restart, write, frequency=0
** 
** FIELD OUTPUT: F-Output-1
** 
*Output, field, variable=PRESELECT
** 
** HISTORY OUTPUT: H-Output-2
** 
*Output, history, variable=PRESELECT
*End Step
