*Heading
** Job name: pipe_model Model name: StructureModel
** Generated by: Abaqus/CAE 6.10-1
*Preprint, echo=NO, model=NO, history=NO, contact=NO
**
** PARTS
**
*Part, name=pipe-1
*Node
      1, 0.0479746498, -0.0140866274,          0.5
      2, 0.0420626774, -0.0270320401,          0.5
      3, 0.0327430367, -0.0377874784,          0.5
      4, 0.0207707509, -0.0454815999,          0.5
      5, 0.00711574173, -0.0494910739,          0.5
      6, -0.00711574173, -0.0494910739,          0.5
      7, -0.0207707509, -0.0454815999,          0.5
      8, -0.0327430367, -0.0377874784,          0.5
      9, -0.0420626774, -0.0270320401,          0.5
     10, -0.0479746498, -0.0140866274,          0.5
     11, -0.0500000007,           0.,          0.5
     12, -0.0479746498, 0.0140866274,          0.5
     13, -0.0420626774, 0.0270320401,          0.5
     14, -0.0327430367, 0.0377874784,          0.5
     15, -0.0207707509, 0.0454815999,          0.5
     16, -0.00711574173, 0.0494910739,          0.5
     17, 0.00711574173, 0.0494910739,          0.5
     18, 0.0207707509, 0.0454815999,          0.5
     19, 0.0327430367, 0.0377874784,          0.5
     20, 0.0420626774, 0.0270320401,          0.5
** ... 772 like lines cut
*Element, type=S4
  1,  22,   1,  23,  44
  2,   1,   2,  24,  23
  3,   2,   3,  25,  24
  4,   3,   4,  26,  25
  5,   4,   5,  27,  26
  6,   5,   6,  28,  27
  7,   6,   7,  29,  28
  8,   7,   8,  30,  29
  9,   8,   9,  31,  30
 10,   9,  10,  32,  31
 11,  10,  11,  33,  32
 12,  11,  12,  34,  33
 13,  12,  13,  35,  34
 14,  13,  14,  36,  35
 15,  14,  15,  37,  36
 16,  15,  16,  38,  37
 17,  16,  17,  39,  38
 18,  17,  18,  40,  39
 19,  18,  19,  41,  40
 20,  19,  20,  42,  41
** ... 750 like lines cut
*Nset, nset=_PickedSet2, internal, generate
   1,  792,    1
*Elset, elset=_PickedSet2, internal, generate
   1,  770,    1
** Section: shell_prop
*Shell Section, elset=_PickedSet2, material=steel
0.01, 5
*End Part
**  
**
** ASSEMBLY
**
*Assembly, name=Assembly
**  
*Instance, name=pipe-1-1, part=pipe-1
*End Instance
**  
*Nset, nset=_PickedSet16, internal, instance=pipe-1-1, generate
  1,  22,   1
*Elset, elset=_PickedSet16, internal, instance=pipe-1-1, generate
  1,  22,   1
*Nset, nset=_PickedSet18, internal, instance=pipe-1-1
 22,
*Elset, elset=__PickedSurf15_SPOS, internal, instance=pipe-1-1, generate
   1,  770,    1
*Surface, type=ELEMENT, name=_PickedSurf15, internal
__PickedSurf15_SPOS, SPOS
*End Assembly
** 
** MATERIALS
** 
*Material, name=steel
*Elastic
 2.15e+09, 0.28
** ----------------------------------------------------------------
** 
** STEP: static
** 
*Step, name=static
*Static, direct
0.1, 1., 
** 
** BOUNDARY CONDITIONS
** 
** Name: BC-1 Type: Displacement/Rotation
*Boundary
_PickedSet16, 3, 3
_PickedSet16, 4, 4
_PickedSet16, 5, 5
** Name: BC-2 Type: Displacement/Rotation
*Boundary
_PickedSet18, 1, 1
_PickedSet18, 2, 2
_PickedSet18, 6, 6
** 
** LOADS
** 
**Nodal Force
*CLoad
pipe-1-1.1, 1, 9.7111e-005
*CLoad
pipe-1-1.1, 2, -2.84702e-005
*CLoad
pipe-1-1.1, 3, -5.01344e-010
*CLoad
pipe-1-1.2, 1, 8.53622e-005
*CLoad
pipe-1-1.2, 2, -5.49065e-005
*CLoad
pipe-1-1.2, 3, 2.706e-010
*CLoad
pipe-1-1.3, 1, 6.59983e-005
*CLoad
pipe-1-1.3, 2, -7.62346e-005
*CLoad
pipe-1-1.3, 3, 1.88306e-009
*CLoad
pipe-1-1.4, 1, 4.21019e-005
*CLoad
pipe-1-1.4, 2, -9.20855e-005
*CLoad
pipe-1-1.4, 3, -9.46541e-010
*CLoad
pipe-1-1.5, 1, 1.43943e-005
*CLoad
pipe-1-1.5, 2, -0.000100121
*CLoad
pipe-1-1.5, 3, 7.05881e-011
*CLoad
pipe-1-1.6, 1, -1.43945e-005
*CLoad
pipe-1-1.6, 2, -0.000100121
*CLoad
pipe-1-1.6, 3, 4.79415e-010
*CLoad
pipe-1-1.7, 1, -4.21016e-005
*CLoad
pipe-1-1.7, 2, -9.20858e-005
*CLoad
pipe-1-1.7, 3, -1.09085e-010
*CLoad
pipe-1-1.8, 1, -6.59967e-005
*CLoad
pipe-1-1.8, 2, -7.62333e-005
*CLoad
pipe-1-1.8, 3, 1.12601e-009
*CLoad
pipe-1-1.9, 1, -8.53651e-005
*CLoad
pipe-1-1.9, 2, -5.49089e-005
*CLoad
pipe-1-1.9, 3, 4.73056e-011
*CLoad
pipe-1-1.10, 1, -9.71102e-005
*CLoad
pipe-1-1.10, 2, -2.84696e-005
*CLoad
pipe-1-1.10, 3, 1.36673e-010
*CLoad
pipe-1-1.11, 1, -0.000100883
*CLoad
pipe-1-1.11, 2, -1.64809e-009
*CLoad
pipe-1-1.11, 3, -1.30046e-009
*CLoad
pipe-1-1.12, 1, -9.71327e-005
*CLoad
pipe-1-1.12, 2, 2.84783e-005
*CLoad
pipe-1-1.12, 3, 4.65385e-010
*CLoad
pipe-1-1.13, 1, -8.53421e-005
*CLoad
pipe-1-1.13, 2, 5.48971e-005
*CLoad
pipe-1-1.13, 3, 1.87475e-010
*CLoad
pipe-1-1.14, 1, -6.60042e-005
*CLoad
pipe-1-1.14, 2, 7.62375e-005
*CLoad
pipe-1-1.14, 3, 1.62348e-009
*CLoad
pipe-1-1.15, 1, -4.21017e-005
*CLoad
pipe-1-1.15, 2, 9.20861e-005
*CLoad
pipe-1-1.15, 3, -9.39572e-010
*CLoad
pipe-1-1.16, 1, -1.43946e-005
*CLoad
pipe-1-1.16, 2, 0.000100121
*CLoad
pipe-1-1.16, 3, 8.205e-010
*CLoad
pipe-1-1.17, 1, 1.43944e-005
*CLoad
pipe-1-1.17, 2, 0.000100121
*CLoad
pipe-1-1.17, 3, 4.43128e-010
*CLoad
pipe-1-1.18, 1, 4.21021e-005
*CLoad
pipe-1-1.18, 2, 9.2086e-005
*CLoad
pipe-1-1.18, 3, -4.35844e-010
*CLoad
pipe-1-1.19, 1, 6.60036e-005
*CLoad
pipe-1-1.19, 2, 7.62373e-005
*CLoad
pipe-1-1.19, 3, 1.47021e-009
*CLoad
pipe-1-1.20, 1, 8.53432e-005
*CLoad
pipe-1-1.20, 2, 5.48975e-005
*CLoad
pipe-1-1.20, 3, 3.33689e-010
*CLoad
pipe-1-1.21, 1, 9.7132e-005
*CLoad
pipe-1-1.21, 2, 2.8478e-005
*CLoad
pipe-1-1.21, 3, -5.1151e-010
*CLoad
pipe-1-1.22, 1, 0.000100883
*CLoad
pipe-1-1.22, 2, -2.02395e-009
*CLoad
pipe-1-1.22, 3, -3.12043e-009
*CLoad
pipe-1-1.23, 1, 0.000194535
*CLoad
pipe-1-1.23, 2, -5.70313e-005
*CLoad
pipe-1-1.23, 3, -5.90091e-012
*CLoad
pipe-1-1.24, 1, 0.000171004
*CLoad
pipe-1-1.24, 2, -0.000109993
*CLoad
pipe-1-1.24, 3, 2.38814e-011
*CLoad
pipe-1-1.25, 1, 0.000132211
*CLoad
pipe-1-1.25, 2, -0.000152716
*CLoad
pipe-1-1.25, 3, 3.36044e-011
*CLoad
pipe-1-1.26, 1, 8.43413e-005
*CLoad
pipe-1-1.26, 2, -0.000184472
*CLoad
pipe-1-1.26, 3, -2.03915e-011
*CLoad
pipe-1-1.27, 1, 2.88355e-005
*CLoad
pipe-1-1.27, 2, -0.000200568
*CLoad
pipe-1-1.27, 3, 9.5543e-012
*CLoad
pipe-1-1.28, 1, -2.88359e-005
*CLoad
pipe-1-1.28, 2, -0.000200568
*CLoad
pipe-1-1.28, 3, -4.32001e-011
*CLoad
pipe-1-1.29, 1, -8.43406e-005
*CLoad
pipe-1-1.29, 2, -0.000184472
*CLoad
pipe-1-1.29, 3, 3.90956e-011
*CLoad
pipe-1-1.30, 1, -0.000132211
*CLoad
pipe-1-1.30, 2, -0.000152716
*CLoad
pipe-1-1.30, 3, -1.80904e-011
*CLoad
pipe-1-1.31, 1, -0.000171005
*CLoad
pipe-1-1.31, 2, -0.000109995
*CLoad
pipe-1-1.31, 3, 2.07331e-011
*CLoad
pipe-1-1.32, 1, -0.000194535
*CLoad
pipe-1-1.32, 2, -5.70311e-005
*CLoad
pipe-1-1.32, 3, -1.75376e-011
*CLoad
pipe-1-1.33, 1, -0.000202097
*CLoad
pipe-1-1.33, 2, -3.59932e-009
*CLoad
pipe-1-1.33, 3, -2.59026e-011
*CLoad
pipe-1-1.34, 1, -0.000194581
*CLoad
pipe-1-1.34, 2, 5.70488e-005
*CLoad
pipe-1-1.34, 3, 3.19323e-011
*CLoad
pipe-1-1.35, 1, -0.000170959
*CLoad
pipe-1-1.35, 2, 0.000109972
*CLoad
pipe-1-1.35, 3, 1.49929e-011
*CLoad
pipe-1-1.36, 1, -0.000132225
*CLoad
pipe-1-1.36, 2, 0.000152724
*CLoad
pipe-1-1.36, 3, -1.3467e-012
*CLoad
pipe-1-1.37, 1, -8.43411e-005
*CLoad
pipe-1-1.37, 2, 0.000184473
*CLoad
pipe-1-1.37, 3, 2.00569e-011
*CLoad
pipe-1-1.38, 1, -2.88359e-005
*CLoad
pipe-1-1.38, 2, 0.000200568
*CLoad
pipe-1-1.38, 3, -3.47259e-012
*CLoad
pipe-1-1.39, 1, 2.88356e-005
*CLoad
pipe-1-1.39, 2, 0.000200568
*CLoad
pipe-1-1.39, 3, -2.6676e-011
*CLoad
pipe-1-1.40, 1, 8.43417e-005
*CLoad
pipe-1-1.40, 2, 0.000184473
*CLoad
pipe-1-1.40, 3, 2.95678e-012
*CLoad
pipe-1-1.41, 1, 0.000132225
*CLoad
pipe-1-1.41, 2, 0.000152724
*CLoad
pipe-1-1.41, 3, 1.42127e-011
*CLoad
pipe-1-1.42, 1, 0.00017096
*CLoad
pipe-1-1.42, 2, 0.000109971
*CLoad
pipe-1-1.42, 3, 5.09524e-011
*CLoad
pipe-1-1.43, 1, 0.00019458
*CLoad
pipe-1-1.43, 2, 5.70487e-005
*CLoad
pipe-1-1.43, 3, -7.65019e-011
*CLoad
pipe-1-1.44, 1, 0.000202097
*CLoad
pipe-1-1.44, 2, -3.85249e-009
*CLoad
pipe-1-1.44, 3, -1.72717e-010
*CLoad
pipe-1-1.45, 1, 0.000194461
*CLoad
pipe-1-1.45, 2, -5.70101e-005
*CLoad
pipe-1-1.45, 3, 1.8887e-011
*CLoad
pipe-1-1.46, 1, 0.000170937
*CLoad
pipe-1-1.46, 2, -0.000109949
*CLoad
pipe-1-1.46, 3, -3.45308e-011
*CLoad
pipe-1-1.47, 1, 0.000132162
*CLoad
pipe-1-1.47, 2, -0.000152661
*CLoad
pipe-1-1.47, 3, -8.12331e-012
*CLoad
pipe-1-1.48, 1, 8.43082e-005
*CLoad
pipe-1-1.48, 2, -0.000184399
*CLoad
pipe-1-1.48, 3, 1.99921e-011
*CLoad
pipe-1-1.49, 1, 2.88236e-005
*CLoad
pipe-1-1.49, 2, -0.000200491
*CLoad
pipe-1-1.49, 3, -4.57147e-011
*CLoad
pipe-1-1.50, 1, -2.8824e-005
*CLoad
pipe-1-1.50, 2, -0.00020049
*CLoad
pipe-1-1.50, 3, 4.63763e-011
*CLoad
pipe-1-1.51, 1, -8.43075e-005
*CLoad
pipe-1-1.51, 2, -0.000184399
*CLoad
pipe-1-1.51, 3, -2.1934e-011
*CLoad
pipe-1-1.52, 1, -0.000132163
*CLoad
pipe-1-1.52, 2, -0.00015266
*CLoad
pipe-1-1.52, 3, 2.93105e-012
*CLoad
pipe-1-1.53, 1, -0.000170937
*CLoad
pipe-1-1.53, 2, -0.00010995
*CLoad
pipe-1-1.53, 3, 3.4333e-011
*CLoad
pipe-1-1.54, 1, -0.000194461
*CLoad
pipe-1-1.54, 2, -5.70103e-005
*CLoad
pipe-1-1.54, 3, -1.71959e-011
*CLoad
pipe-1-1.55, 1, -0.000202018
*CLoad
pipe-1-1.55, 2, -3.61539e-009
*CLoad
pipe-1-1.55, 3, -3.78961e-011
*CLoad
pipe-1-1.56, 1, -0.000194506
*CLoad
pipe-1-1.56, 2, 5.7028e-005
*CLoad
pipe-1-1.56, 3, -7.86577e-014
*CLoad
pipe-1-1.57, 1, -0.000170891
*CLoad
pipe-1-1.57, 2, 0.000109927
*CLoad
pipe-1-1.57, 3, -2.92151e-016
*CLoad
pipe-1-1.58, 1, -0.000132177
*CLoad
pipe-1-1.58, 2, 0.000152668
*CLoad
pipe-1-1.58, 3, 6.17013e-016
*CLoad
pipe-1-1.59, 1, -8.4308e-005
*CLoad
pipe-1-1.59, 2, 0.0001844
*CLoad
pipe-1-1.59, 3, 1.04046e-016
*CLoad
pipe-1-1.60, 1, -2.8824e-005
*CLoad
pipe-1-1.60, 2, 0.00020049
*CLoad
pipe-1-1.60, 3, 9.87997e-017
*CLoad
pipe-1-1.61, 1, 2.88237e-005
*CLoad
pipe-1-1.61, 2, 0.00020049
*CLoad
pipe-1-1.61, 3, 1.37976e-015
*CLoad
pipe-1-1.62, 1, 8.43086e-005
*CLoad
pipe-1-1.62, 2, 0.0001844
*CLoad
pipe-1-1.62, 3, -6.74206e-016
*CLoad
pipe-1-1.63, 1, 0.000132177
*CLoad
pipe-1-1.63, 2, 0.000152668
*CLoad
pipe-1-1.63, 3, -3.90701e-016
*CLoad
pipe-1-1.64, 1, 0.000170892
*CLoad
pipe-1-1.64, 2, 0.000109926
*CLoad
pipe-1-1.64, 3, 6.35552e-016
*CLoad
pipe-1-1.65, 1, 0.000194506
*CLoad
pipe-1-1.65, 2, 5.70279e-005
*CLoad
pipe-1-1.65, 3, -1.2731e-014
*CLoad
pipe-1-1.66, 1, 0.000202018
*CLoad
pipe-1-1.66, 2, -3.82555e-009
*CLoad
pipe-1-1.66, 3, 4.43891e-011
*CLoad
pipe-1-1.67, 1, 0.00019455
*CLoad
pipe-1-1.67, 2, -5.70373e-005
*CLoad
pipe-1-1.67, 3, -3.50845e-011
*CLoad
pipe-1-1.68, 1, 0.00017101
*CLoad
pipe-1-1.68, 2, -0.000109995
*CLoad
pipe-1-1.68, 3, 5.72662e-011
*CLoad
pipe-1-1.69, 1, 0.000132231
*CLoad
pipe-1-1.69, 2, -0.000152737
*CLoad
pipe-1-1.69, 3, 3.05513e-012
*CLoad
pipe-1-1.70, 1, 8.43463e-005
*CLoad
pipe-1-1.70, 2, -0.000184484
*CLoad
pipe-1-1.70, 3, -1.76462e-011
*CLoad
pipe-1-1.71, 1, 2.88372e-005
*CLoad
pipe-1-1.71, 2, -0.000200584
*CLoad
pipe-1-1.71, 3, 4.74178e-011
*CLoad
pipe-1-1.72, 1, -2.88376e-005
*CLoad
pipe-1-1.72, 2, -0.000200584
*CLoad
pipe-1-1.72, 3, -4.82512e-011
*CLoad
pipe-1-1.73, 1, -8.43456e-005
*CLoad
pipe-1-1.73, 2, -0.000184484
*CLoad
pipe-1-1.73, 3, 2.06284e-011
*CLoad
pipe-1-1.74, 1, -0.000132231
*CLoad
pipe-1-1.74, 2, -0.000152737
*CLoad
pipe-1-1.74, 3, 2.11901e-012
*CLoad
pipe-1-1.75, 1, -0.00017101
*CLoad
pipe-1-1.75, 2, -0.000109996
*CLoad
pipe-1-1.75, 3, -5.71322e-011
*CLoad
pipe-1-1.76, 1, -0.00019455
*CLoad
pipe-1-1.76, 2, -5.70376e-005
*CLoad
pipe-1-1.76, 3, 3.32546e-011
*CLoad
pipe-1-1.77, 1, -0.000202118
*CLoad
pipe-1-1.77, 2, -3.59037e-009
*CLoad
pipe-1-1.77, 3, 5.56846e-011
*CLoad
pipe-1-1.78, 1, -0.000194595
*CLoad
pipe-1-1.78, 2, 5.70551e-005
*CLoad
pipe-1-1.78, 3, -9.1539e-014
*CLoad
pipe-1-1.79, 1, -0.000170965
*CLoad
pipe-1-1.79, 2, 0.000109973
*CLoad
pipe-1-1.79, 3, -3.09524e-016
*CLoad
pipe-1-1.80, 1, -0.000132245
*CLoad
pipe-1-1.80, 2, 0.000152744
*CLoad
pipe-1-1.80, 3, 6.20933e-016
*CLoad
pipe-1-1.81, 1, -8.43461e-005
*CLoad
pipe-1-1.81, 2, 0.000184485
*CLoad
pipe-1-1.81, 3, 7.94857e-016
*CLoad
pipe-1-1.82, 1, -2.88377e-005
*CLoad
pipe-1-1.82, 2, 0.000200584
*CLoad
pipe-1-1.82, 3, 3.18343e-016
*CLoad
pipe-1-1.83, 1, 2.88373e-005
*CLoad
pipe-1-1.83, 2, 0.000200584
*CLoad
pipe-1-1.83, 3, 1.34175e-015
*CLoad
pipe-1-1.84, 1, 8.43467e-005
*CLoad
pipe-1-1.84, 2, 0.000184485
*CLoad
pipe-1-1.84, 3, -6.76862e-016
*CLoad
pipe-1-1.85, 1, 0.000132245
*CLoad
pipe-1-1.85, 2, 0.000152745
*CLoad
pipe-1-1.85, 3, -5.92956e-016
*CLoad
pipe-1-1.86, 1, 0.000170965
*CLoad
pipe-1-1.86, 2, 0.000109972
*CLoad
pipe-1-1.86, 3, 7.0129e-016
*CLoad
pipe-1-1.87, 1, 0.000194595
*CLoad
pipe-1-1.87, 2, 5.7055e-005
*CLoad
pipe-1-1.87, 3, -1.23417e-014
*CLoad
pipe-1-1.88, 1, 0.000202118
*CLoad
pipe-1-1.88, 2, -3.79229e-009
*CLoad
pipe-1-1.88, 3, -4.93563e-011
*CLoad
pipe-1-1.89, 1, 0.00019455
*CLoad
pipe-1-1.89, 2, -5.70373e-005
*CLoad
pipe-1-1.89, 3, 3.50599e-011
*CLoad
pipe-1-1.90, 1, 0.00017101
*CLoad
pipe-1-1.90, 2, -0.000109995
*CLoad
pipe-1-1.90, 3, -5.72666e-011
*CLoad
pipe-1-1.91, 1, 0.000132231
*CLoad
pipe-1-1.91, 2, -0.000152737
*CLoad
pipe-1-1.91, 3, -3.05491e-012
*CLoad
pipe-1-1.92, 1, 8.43463e-005
*CLoad
pipe-1-1.92, 2, -0.000184484
*CLoad
pipe-1-1.92, 3, 1.76464e-011
*CLoad
pipe-1-1.93, 1, 2.88372e-005
*CLoad
pipe-1-1.93, 2, -0.000200584
*CLoad
pipe-1-1.93, 3, -4.74185e-011
*CLoad
pipe-1-1.94, 1, -2.88376e-005
*CLoad
pipe-1-1.94, 2, -0.000200584
*CLoad
pipe-1-1.94, 3, 4.82504e-011
*CLoad
pipe-1-1.95, 1, -8.43456e-005
*CLoad
pipe-1-1.95, 2, -0.000184484
*CLoad
pipe-1-1.95, 3, -2.06288e-011
*CLoad
pipe-1-1.96, 1, -0.000132231
*CLoad
pipe-1-1.96, 2, -0.000152737
*CLoad
pipe-1-1.96, 3, -2.11789e-012
*CLoad
pipe-1-1.97, 1, -0.00017101
*CLoad
pipe-1-1.97, 2, -0.000109995
*CLoad
pipe-1-1.97, 3, 5.71322e-011
*CLoad
pipe-1-1.98, 1, -0.00019455
*CLoad
pipe-1-1.98, 2, -5.70376e-005
*CLoad
pipe-1-1.98, 3, -3.3275e-011
*CLoad
pipe-1-1.99, 1, -0.000202118
*CLoad
pipe-1-1.99, 2, -3.59665e-009
*CLoad
pipe-1-1.99, 3, -4.26997e-011
*CLoad
pipe-1-1.100, 1, -0.000194595
*CLoad
pipe-1-1.100, 2, 5.70551e-005
*CLoad
pipe-1-1.100, 3, -8.76756e-014
*CLoad
pipe-1-1.101, 1, -0.000170965
*CLoad
pipe-1-1.101, 2, 0.000109973
*CLoad
pipe-1-1.101, 3, -3.11027e-016
*CLoad
pipe-1-1.102, 1, -0.000132245
*CLoad
pipe-1-1.102, 2, 0.000152744
*CLoad
pipe-1-1.102, 3, 6.15916e-016
*CLoad
pipe-1-1.103, 1, -8.43461e-005
*CLoad
pipe-1-1.103, 2, 0.000184485
*CLoad
pipe-1-1.103, 3, 7.92515e-016
*CLoad
pipe-1-1.104, 1, -2.88377e-005
*CLoad
pipe-1-1.104, 2, 0.000200584
*CLoad
pipe-1-1.104, 3, 2.46503e-016
*CLoad
pipe-1-1.105, 1, 2.88373e-005
*CLoad
pipe-1-1.105, 2, 0.000200584
*CLoad
pipe-1-1.105, 3, 1.31526e-015
*CLoad
pipe-1-1.106, 1, 8.43467e-005
*CLoad
pipe-1-1.106, 2, 0.000184485
*CLoad
pipe-1-1.106, 3, -8.35071e-016
*CLoad
pipe-1-1.107, 1, 0.000132245
*CLoad
pipe-1-1.107, 2, 0.000152745
*CLoad
pipe-1-1.107, 3, 1.91727e-016
*CLoad
pipe-1-1.108, 1, 0.000170965
*CLoad
pipe-1-1.108, 2, 0.000109972
*CLoad
pipe-1-1.108, 3, 3.57465e-017
*CLoad
pipe-1-1.109, 1, 0.000194595
*CLoad
pipe-1-1.109, 2, 5.7055e-005
*CLoad
pipe-1-1.109, 3, -1.13093e-014
*CLoad
pipe-1-1.110, 1, 0.000202118
*CLoad
pipe-1-1.110, 2, -3.7923e-009
*CLoad
pipe-1-1.110, 3, 4.92573e-011
*CLoad
pipe-1-1.111, 1, 0.000194461
*CLoad
pipe-1-1.111, 2, -5.70101e-005
*CLoad
pipe-1-1.111, 3, -1.89118e-011
*CLoad
pipe-1-1.112, 1, 0.000170937
*CLoad
pipe-1-1.112, 2, -0.000109949
*CLoad
pipe-1-1.112, 3, 3.453e-011
*CLoad
pipe-1-1.113, 1, 0.000132162
*CLoad
pipe-1-1.113, 2, -0.000152661
*CLoad
pipe-1-1.113, 3, 8.12331e-012
*CLoad
pipe-1-1.114, 1, 8.43082e-005
*CLoad
pipe-1-1.114, 2, -0.000184399
*CLoad
pipe-1-1.114, 3, -1.99918e-011
*CLoad
pipe-1-1.115, 1, 2.88236e-005
*CLoad
pipe-1-1.115, 2, -0.000200491
*CLoad
pipe-1-1.115, 3, 4.57135e-011
*CLoad
pipe-1-1.116, 1, -2.8824e-005
*CLoad
pipe-1-1.116, 2, -0.00020049
*CLoad
pipe-1-1.116, 3, -4.63771e-011
*CLoad
pipe-1-1.117, 1, -8.43075e-005
*CLoad
pipe-1-1.117, 2, -0.000184399
*CLoad
pipe-1-1.117, 3, 2.19331e-011
*CLoad
pipe-1-1.118, 1, -0.000132163
*CLoad
pipe-1-1.118, 2, -0.00015266
*CLoad
pipe-1-1.118, 3, -2.93249e-012
*CLoad
pipe-1-1.119, 1, -0.000170937
*CLoad
pipe-1-1.119, 2, -0.00010995
*CLoad
pipe-1-1.119, 3, -3.43329e-011
*CLoad
pipe-1-1.120, 1, -0.000194461
*CLoad
pipe-1-1.120, 2, -5.70103e-005
*CLoad
pipe-1-1.120, 3, 1.71748e-011
*CLoad
pipe-1-1.121, 1, -0.000202018
*CLoad
pipe-1-1.121, 2, -3.63427e-009
*CLoad
pipe-1-1.121, 3, 5.08594e-011
*CLoad
pipe-1-1.122, 1, -0.000194506
*CLoad
pipe-1-1.122, 2, 5.7028e-005
*CLoad
pipe-1-1.122, 3, -7.45326e-014
*CLoad
pipe-1-1.123, 1, -0.000170891
*CLoad
pipe-1-1.123, 2, 0.000109927
*CLoad
pipe-1-1.123, 3, -2.91202e-016
*CLoad
pipe-1-1.124, 1, -0.000132177
*CLoad
pipe-1-1.124, 2, 0.000152668
*CLoad
pipe-1-1.124, 3, 6.20081e-016
*CLoad
pipe-1-1.125, 1, -8.4308e-005
*CLoad
pipe-1-1.125, 2, 0.0001844
*CLoad
pipe-1-1.125, 3, 7.92032e-016
*CLoad
pipe-1-1.126, 1, -2.8824e-005
*CLoad
pipe-1-1.126, 2, 0.00020049
*CLoad
pipe-1-1.126, 3, 3.17618e-016
*CLoad
pipe-1-1.127, 1, 2.88237e-005
*CLoad
pipe-1-1.127, 2, 0.00020049
*CLoad
pipe-1-1.127, 3, 1.33592e-015
*CLoad
pipe-1-1.128, 1, 8.43086e-005
*CLoad
pipe-1-1.128, 2, 0.0001844
*CLoad
pipe-1-1.128, 3, -6.96283e-016
*CLoad
pipe-1-1.129, 1, 0.000132177
*CLoad
pipe-1-1.129, 2, 0.000152668
*CLoad
pipe-1-1.129, 3, -3.07476e-016
*CLoad
pipe-1-1.130, 1, 0.000170892
*CLoad
pipe-1-1.130, 2, 0.000109926
*CLoad
pipe-1-1.130, 3, 7.00413e-016
*CLoad
pipe-1-1.131, 1, 0.000194506
*CLoad
pipe-1-1.131, 2, 5.70279e-005
*CLoad
pipe-1-1.131, 3, -1.05729e-014
*CLoad
pipe-1-1.132, 1, 0.000202018
*CLoad
pipe-1-1.132, 2, -3.82557e-009
*CLoad
pipe-1-1.132, 3, -4.44872e-011
*CLoad
pipe-1-1.133, 1, 0.00019446
*CLoad
pipe-1-1.133, 2, -5.70097e-005
*CLoad
pipe-1-1.133, 3, 1.51523e-011
*CLoad
pipe-1-1.134, 1, 0.000170937
*CLoad
pipe-1-1.134, 2, -0.00010995
*CLoad
pipe-1-1.134, 3, -2.81454e-011
*CLoad
pipe-1-1.135, 1, 0.000132162
*CLoad
pipe-1-1.135, 2, -0.00015266
*CLoad
pipe-1-1.135, 3, -6.0976e-012
*CLoad
pipe-1-1.136, 1, 8.43081e-005
*CLoad
pipe-1-1.136, 2, -0.000184399
*CLoad
pipe-1-1.136, 3, 1.78467e-011
*CLoad
pipe-1-1.137, 1, 2.88239e-005
*CLoad
pipe-1-1.137, 2, -0.00020049
*CLoad
pipe-1-1.137, 3, -3.91858e-011
*CLoad
pipe-1-1.138, 1, -2.88243e-005
*CLoad
pipe-1-1.138, 2, -0.00020049
*CLoad
pipe-1-1.138, 3, 3.97263e-011
*CLoad
pipe-1-1.139, 1, -8.43075e-005
*CLoad
pipe-1-1.139, 2, -0.000184399
*CLoad
pipe-1-1.139, 3, -1.94158e-011
*CLoad
pipe-1-1.140, 1, -0.000132162
*CLoad
pipe-1-1.140, 2, -0.00015266
*CLoad
pipe-1-1.140, 3, 1.82901e-012
*CLoad
pipe-1-1.141, 1, -0.000170937
*CLoad
pipe-1-1.141, 2, -0.00010995
*CLoad
pipe-1-1.141, 3, 2.79791e-011
*CLoad
pipe-1-1.142, 1, -0.00019446
*CLoad
pipe-1-1.142, 2, -5.701e-005
*CLoad
pipe-1-1.142, 3, -1.37522e-011
*CLoad
pipe-1-1.143, 1, -0.00020202
*CLoad
pipe-1-1.143, 2, -3.65238e-009
*CLoad
pipe-1-1.143, 3, -2.97507e-011
*CLoad
pipe-1-1.144, 1, -0.000194506
*CLoad
pipe-1-1.144, 2, 5.70276e-005
*CLoad
pipe-1-1.144, 3, -6.97057e-014
*CLoad
pipe-1-1.145, 1, -0.000170891
*CLoad
pipe-1-1.145, 2, 0.000109927
*CLoad
pipe-1-1.145, 3, -2.93577e-016
*CLoad
pipe-1-1.146, 1, -0.000132177
*CLoad
pipe-1-1.146, 2, 0.000152667
*CLoad
pipe-1-1.146, 3, 6.14178e-016
*CLoad
pipe-1-1.147, 1, -8.43079e-005
*CLoad
pipe-1-1.147, 2, 0.000184401
*CLoad
pipe-1-1.147, 3, 7.88643e-016
*CLoad
pipe-1-1.148, 1, -2.88243e-005
*CLoad
pipe-1-1.148, 2, 0.00020049
*CLoad
pipe-1-1.148, 3, 3.11386e-016
*CLoad
pipe-1-1.149, 1, 2.8824e-005
*CLoad
pipe-1-1.149, 2, 0.00020049
*CLoad
pipe-1-1.149, 3, 1.5201e-015
*CLoad
pipe-1-1.150, 1, 8.43085e-005
*CLoad
pipe-1-1.150, 2, 0.0001844
*CLoad
pipe-1-1.150, 3, -6.73304e-016
*CLoad
pipe-1-1.151, 1, 0.000132176
*CLoad
pipe-1-1.151, 2, 0.000152668
*CLoad
pipe-1-1.151, 3, -3.89346e-016
*CLoad
pipe-1-1.152, 1, 0.000170892
*CLoad
pipe-1-1.152, 2, 0.000109927
*CLoad
pipe-1-1.152, 3, 6.35097e-016
*CLoad
pipe-1-1.153, 1, 0.000194506
*CLoad
pipe-1-1.153, 2, 5.70276e-005
*CLoad
pipe-1-1.153, 3, -9.39006e-015
*CLoad
pipe-1-1.154, 1, 0.000202019
*CLoad
pipe-1-1.154, 2, -3.83729e-009
*CLoad
pipe-1-1.154, 3, 3.62621e-011
*CLoad
pipe-1-1.155, 1, 0.00019446
*CLoad
pipe-1-1.155, 2, -5.70096e-005
*CLoad
pipe-1-1.155, 3, -1.15927e-011
*CLoad
pipe-1-1.156, 1, 0.000170938
*CLoad
pipe-1-1.156, 2, -0.00010995
*CLoad
pipe-1-1.156, 3, 2.18174e-011
*CLoad
pipe-1-1.157, 1, 0.000132162
*CLoad
pipe-1-1.157, 2, -0.00015266
*CLoad
pipe-1-1.157, 3, 4.40233e-012
*CLoad
pipe-1-1.158, 1, 8.43081e-005
*CLoad
pipe-1-1.158, 2, -0.000184399
*CLoad
pipe-1-1.158, 3, -1.44927e-011
*CLoad
pipe-1-1.159, 1, 2.88241e-005
*CLoad
pipe-1-1.159, 2, -0.00020049
*CLoad
pipe-1-1.159, 3, 3.12734e-011
*CLoad
pipe-1-1.160, 1, -2.88244e-005
*CLoad
pipe-1-1.160, 2, -0.00020049
*CLoad
pipe-1-1.160, 3, -3.16945e-011
*CLoad
pipe-1-1.161, 1, -8.43075e-005
*CLoad
pipe-1-1.161, 2, -0.0001844
*CLoad
pipe-1-1.161, 3, 1.57003e-011
*CLoad
pipe-1-1.162, 1, -0.000132162
*CLoad
pipe-1-1.162, 2, -0.000152659
*CLoad
pipe-1-1.162, 3, -1.07012e-012
*CLoad
pipe-1-1.163, 1, -0.000170937
*CLoad
pipe-1-1.163, 2, -0.00010995
*CLoad
pipe-1-1.163, 3, -2.16855e-011
*CLoad
pipe-1-1.164, 1, -0.00019446
*CLoad
pipe-1-1.164, 2, -5.70098e-005
*CLoad
pipe-1-1.164, 3, 1.04668e-011
*CLoad
pipe-1-1.165, 1, -0.000202019
*CLoad
pipe-1-1.165, 2, -3.66757e-009
*CLoad
pipe-1-1.165, 3, 3.46797e-011
*CLoad
pipe-1-1.166, 1, -0.000194506
*CLoad
pipe-1-1.166, 2, 5.70275e-005
*CLoad
pipe-1-1.166, 3, -7.17182e-014
*CLoad
pipe-1-1.167, 1, -0.000170892
*CLoad
pipe-1-1.167, 2, 0.000109927
*CLoad
pipe-1-1.167, 3, -3.00498e-016
*CLoad
pipe-1-1.168, 1, -0.000132176
*CLoad
pipe-1-1.168, 2, 0.000152667
*CLoad
pipe-1-1.168, 3, 6.17968e-016
*CLoad
pipe-1-1.169, 1, -8.43079e-005
*CLoad
pipe-1-1.169, 2, 0.000184401
*CLoad
pipe-1-1.169, 3, 8.95475e-016
*CLoad
pipe-1-1.170, 1, -2.88245e-005
*CLoad
pipe-1-1.170, 2, 0.00020049
*CLoad
pipe-1-1.170, 3, 8.45461e-016
*CLoad
pipe-1-1.171, 1, 2.88242e-005
*CLoad
pipe-1-1.171, 2, 0.00020049
*CLoad
pipe-1-1.171, 3, 1.33783e-015
*CLoad
pipe-1-1.172, 1, 8.43085e-005
*CLoad
pipe-1-1.172, 2, 0.0001844
*CLoad
pipe-1-1.172, 3, -6.7345e-016
*CLoad
pipe-1-1.173, 1, 0.000132176
*CLoad
pipe-1-1.173, 2, 0.000152667
*CLoad
pipe-1-1.173, 3, -3.89864e-016
*CLoad
pipe-1-1.174, 1, 0.000170892
*CLoad
pipe-1-1.174, 2, 0.000109927
*CLoad
pipe-1-1.174, 3, 6.42472e-016
*CLoad
pipe-1-1.175, 1, 0.000194506
*CLoad
pipe-1-1.175, 2, 5.70274e-005
*CLoad
pipe-1-1.175, 3, -8.92765e-015
*CLoad
pipe-1-1.176, 1, 0.000202019
*CLoad
pipe-1-1.176, 2, -3.84608e-009
*CLoad
pipe-1-1.176, 3, -2.82529e-011
*CLoad
pipe-1-1.177, 1, 0.00019446
*CLoad
pipe-1-1.177, 2, -5.70095e-005
*CLoad
pipe-1-1.177, 3, 8.14748e-012
*CLoad
pipe-1-1.178, 1, 0.000170938
*CLoad
pipe-1-1.178, 2, -0.00010995
*CLoad
pipe-1-1.178, 3, -1.55435e-011
*CLoad
pipe-1-1.179, 1, 0.000132161
*CLoad
pipe-1-1.179, 2, -0.000152659
*CLoad
pipe-1-1.179, 3, -2.96126e-012
*CLoad
pipe-1-1.180, 1, 8.43081e-005
*CLoad
pipe-1-1.180, 2, -0.000184399
*CLoad
pipe-1-1.180, 3, 1.05774e-011
*CLoad
pipe-1-1.181, 1, 2.88242e-005
*CLoad
pipe-1-1.181, 2, -0.00020049
*CLoad
pipe-1-1.181, 3, -2.26633e-011
*CLoad
pipe-1-1.182, 1, -2.88245e-005
*CLoad
pipe-1-1.182, 2, -0.00020049
*CLoad
pipe-1-1.182, 3, 2.29627e-011
*CLoad
pipe-1-1.183, 1, -8.43075e-005
*CLoad
pipe-1-1.183, 2, -0.0001844
*CLoad
pipe-1-1.183, 3, -1.14339e-011
*CLoad
pipe-1-1.184, 1, -0.000132162
*CLoad
pipe-1-1.184, 2, -0.000152659
*CLoad
pipe-1-1.184, 3, 5.74059e-013
*CLoad
pipe-1-1.185, 1, -0.000170937
*CLoad
pipe-1-1.185, 2, -0.000109951
*CLoad
pipe-1-1.185, 3, 1.54475e-011
*CLoad
pipe-1-1.186, 1, -0.00019446
*CLoad
pipe-1-1.186, 2, -5.70098e-005
*CLoad
pipe-1-1.186, 3, -7.36703e-012
*CLoad
pipe-1-1.187, 1, -0.000202019
*CLoad
pipe-1-1.187, 2, -3.67819e-009
*CLoad
pipe-1-1.187, 3, -1.36131e-011
*CLoad
pipe-1-1.188, 1, -0.000194506
*CLoad
pipe-1-1.188, 2, 5.70275e-005
*CLoad
pipe-1-1.188, 3, -6.69667e-014
*CLoad
pipe-1-1.189, 1, -0.000170892
*CLoad
pipe-1-1.189, 2, 0.000109928
*CLoad
pipe-1-1.189, 3, -2.97039e-016
*CLoad
pipe-1-1.190, 1, -0.000132176
*CLoad
pipe-1-1.190, 2, 0.000152667
*CLoad
pipe-1-1.190, 3, 6.16719e-016
*CLoad
pipe-1-1.191, 1, -8.43079e-005
*CLoad
pipe-1-1.191, 2, 0.000184401
*CLoad
pipe-1-1.191, 3, 8.58484e-016
*CLoad
pipe-1-1.192, 1, -2.88246e-005
*CLoad
pipe-1-1.192, 2, 0.00020049
*CLoad
pipe-1-1.192, 3, 4.76529e-016
*CLoad
pipe-1-1.193, 1, 2.88242e-005
*CLoad
pipe-1-1.193, 2, 0.00020049
*CLoad
pipe-1-1.193, 3, 1.29179e-015
*CLoad
pipe-1-1.194, 1, 8.43085e-005
*CLoad
pipe-1-1.194, 2, 0.000184401
*CLoad
pipe-1-1.194, 3, -6.73996e-016
*CLoad
pipe-1-1.195, 1, 0.000132176
*CLoad
pipe-1-1.195, 2, 0.000152667
*CLoad
pipe-1-1.195, 3, -3.90589e-016
*CLoad
pipe-1-1.196, 1, 0.000170892
*CLoad
pipe-1-1.196, 2, 0.000109927
*CLoad
pipe-1-1.196, 3, 6.36098e-016
*CLoad
pipe-1-1.197, 1, 0.000194506
*CLoad
pipe-1-1.197, 2, 5.70274e-005
*CLoad
pipe-1-1.197, 3, -7.50828e-015
*CLoad
pipe-1-1.198, 1, 0.000202019
*CLoad
pipe-1-1.198, 2, -3.85034e-009
*CLoad
pipe-1-1.198, 3, 2.01143e-011
*CLoad
pipe-1-1.199, 1, 0.00019446
*CLoad
pipe-1-1.199, 2, -5.70095e-005
*CLoad
pipe-1-1.199, 3, -4.8528e-012
*CLoad
pipe-1-1.200, 1, 0.000170938
*CLoad
pipe-1-1.200, 2, -0.00010995
*CLoad
pipe-1-1.200, 3, 9.309e-012
*CLoad
pipe-1-1.201, 1, 0.000132161
*CLoad
pipe-1-1.201, 2, -0.000152659
*CLoad
pipe-1-1.201, 3, 1.70334e-012
*CLoad
pipe-1-1.202, 1, 8.43082e-005
*CLoad
pipe-1-1.202, 2, -0.0001844
*CLoad
pipe-1-1.202, 3, -6.41288e-012
*CLoad
pipe-1-1.203, 1, 2.88242e-005
*CLoad
pipe-1-1.203, 2, -0.00020049
*CLoad
pipe-1-1.203, 3, 1.37037e-011
*CLoad
pipe-1-1.204, 1, -2.88246e-005
*CLoad
pipe-1-1.204, 2, -0.00020049
*CLoad
pipe-1-1.204, 3, -1.38843e-011
*CLoad
pipe-1-1.205, 1, -8.43075e-005
*CLoad
pipe-1-1.205, 2, -0.0001844
*CLoad
pipe-1-1.205, 3, 6.9237e-012
*CLoad
pipe-1-1.206, 1, -0.000132162
*CLoad
pipe-1-1.206, 2, -0.000152659
*CLoad
pipe-1-1.206, 3, -2.68624e-013
*CLoad
pipe-1-1.207, 1, -0.000170938
*CLoad
pipe-1-1.207, 2, -0.000109951
*CLoad
pipe-1-1.207, 3, -9.25108e-012
*CLoad
pipe-1-1.208, 1, -0.00019446
*CLoad
pipe-1-1.208, 2, -5.70097e-005
*CLoad
pipe-1-1.208, 3, 4.36176e-012
*CLoad
pipe-1-1.209, 1, -0.000202019
*CLoad
pipe-1-1.209, 2, -3.68658e-009
*CLoad
pipe-1-1.209, 3, 1.85847e-011
*CLoad
pipe-1-1.210, 1, -0.000194506
*CLoad
pipe-1-1.210, 2, 5.70274e-005
*CLoad
pipe-1-1.210, 3, -6.6745e-014
*CLoad
pipe-1-1.211, 1, -0.000170892
*CLoad
pipe-1-1.211, 2, 0.000109928
*CLoad
pipe-1-1.211, 3, -4.09836e-016
*CLoad
pipe-1-1.212, 1, -0.000132176
*CLoad
pipe-1-1.212, 2, 0.000152667
*CLoad
pipe-1-1.212, 3, 6.97353e-016
*CLoad
pipe-1-1.213, 1, -8.4308e-005
*CLoad
pipe-1-1.213, 2, 0.000184401
*CLoad
pipe-1-1.213, 3, 7.91141e-016
*CLoad
pipe-1-1.214, 1, -2.88246e-005
*CLoad
pipe-1-1.214, 2, 0.00020049
*CLoad
pipe-1-1.214, 3, 3.24235e-016
*CLoad
pipe-1-1.215, 1, 2.88243e-005
*CLoad
pipe-1-1.215, 2, 0.00020049
*CLoad
pipe-1-1.215, 3, 1.38299e-015
*CLoad
pipe-1-1.216, 1, 8.43086e-005
*CLoad
pipe-1-1.216, 2, 0.000184401
*CLoad
pipe-1-1.216, 3, -6.72616e-016
*CLoad
pipe-1-1.217, 1, 0.000132175
*CLoad
pipe-1-1.217, 2, 0.000152667
*CLoad
pipe-1-1.217, 3, -3.89093e-016
*CLoad
pipe-1-1.218, 1, 0.000170892
*CLoad
pipe-1-1.218, 2, 0.000109927
*CLoad
pipe-1-1.218, 3, 6.34481e-016
*CLoad
pipe-1-1.219, 1, 0.000194506
*CLoad
pipe-1-1.219, 2, 5.70274e-005
*CLoad
pipe-1-1.219, 3, -6.92047e-015
*CLoad
pipe-1-1.220, 1, 0.000202019
*CLoad
pipe-1-1.220, 2, -3.85236e-009
*CLoad
pipe-1-1.220, 3, -1.21155e-011
*CLoad
pipe-1-1.221, 1, 0.00019446
*CLoad
pipe-1-1.221, 2, -5.70094e-005
*CLoad
pipe-1-1.221, 3, 1.59997e-012
*CLoad
pipe-1-1.222, 1, 0.000170938
*CLoad
pipe-1-1.222, 2, -0.00010995
*CLoad
pipe-1-1.222, 3, -3.10011e-012
*CLoad
pipe-1-1.223, 1, 0.000132161
*CLoad
pipe-1-1.223, 2, -0.000152659
*CLoad
pipe-1-1.223, 3, -5.55381e-013
*CLoad
pipe-1-1.224, 1, 8.43082e-005
*CLoad
pipe-1-1.224, 2, -0.0001844
*CLoad
pipe-1-1.224, 3, 2.14675e-012
*CLoad
pipe-1-1.225, 1, 2.88242e-005
*CLoad
pipe-1-1.225, 2, -0.00020049
*CLoad
pipe-1-1.225, 3, -4.58379e-012
*CLoad
pipe-1-1.226, 1, -2.88246e-005
*CLoad
pipe-1-1.226, 2, -0.00020049
*CLoad
pipe-1-1.226, 3, 4.64307e-012
*CLoad
pipe-1-1.227, 1, -8.43076e-005
*CLoad
pipe-1-1.227, 2, -0.0001844
*CLoad
pipe-1-1.227, 3, -2.31694e-012
*CLoad
pipe-1-1.228, 1, -0.000132161
*CLoad
pipe-1-1.228, 2, -0.000152659
*CLoad
pipe-1-1.228, 3, 7.65118e-014
*CLoad
pipe-1-1.229, 1, -0.000170938
*CLoad
pipe-1-1.229, 2, -0.000109951
*CLoad
pipe-1-1.229, 3, 3.08054e-012
*CLoad
pipe-1-1.230, 1, -0.00019446
*CLoad
pipe-1-1.230, 2, -5.70097e-005
*CLoad
pipe-1-1.230, 3, -1.45156e-012
*CLoad
pipe-1-1.231, 1, -0.000202019
*CLoad
pipe-1-1.231, 2, -3.69378e-009
*CLoad
pipe-1-1.231, 3, 2.50064e-012
*CLoad
pipe-1-1.232, 1, -0.000194506
*CLoad
pipe-1-1.232, 2, 5.70274e-005
*CLoad
pipe-1-1.232, 3, -5.97418e-014
*CLoad
pipe-1-1.233, 1, -0.000170892
*CLoad
pipe-1-1.233, 2, 0.000109928
*CLoad
pipe-1-1.233, 3, -4.91924e-016
*CLoad
pipe-1-1.234, 1, -0.000132176
*CLoad
pipe-1-1.234, 2, 0.000152666
*CLoad
pipe-1-1.234, 3, 9.17671e-016
*CLoad
pipe-1-1.235, 1, -8.4308e-005
*CLoad
pipe-1-1.235, 2, 0.000184401
*CLoad
pipe-1-1.235, 3, 7.88047e-016
*CLoad
pipe-1-1.236, 1, -2.88246e-005
*CLoad
pipe-1-1.236, 2, 0.00020049
*CLoad
pipe-1-1.236, 3, 3.2299e-016
*CLoad
pipe-1-1.237, 1, 2.88243e-005
*CLoad
pipe-1-1.237, 2, 0.00020049
*CLoad
pipe-1-1.237, 3, 1.3292e-015
*CLoad
pipe-1-1.238, 1, 8.43086e-005
*CLoad
pipe-1-1.238, 2, 0.000184401
*CLoad
pipe-1-1.238, 3, -6.82405e-016
*CLoad
pipe-1-1.239, 1, 0.000132175
*CLoad
pipe-1-1.239, 2, 0.000152667
*CLoad
pipe-1-1.239, 3, -3.87896e-016
*CLoad
pipe-1-1.240, 1, 0.000170892
*CLoad
pipe-1-1.240, 2, 0.000109927
*CLoad
pipe-1-1.240, 3, 6.35742e-016
*CLoad
pipe-1-1.241, 1, 0.000194506
*CLoad
pipe-1-1.241, 2, 5.70273e-005
*CLoad
pipe-1-1.241, 3, -6.02553e-015
*CLoad
pipe-1-1.242, 1, 0.000202019
*CLoad
pipe-1-1.242, 2, -3.85319e-009
*CLoad
pipe-1-1.242, 3, 4.00182e-012
*CLoad
pipe-1-1.243, 1, 0.00019446
*CLoad
pipe-1-1.243, 2, -5.70094e-005
*CLoad
pipe-1-1.243, 3, 1.60136e-012
*CLoad
pipe-1-1.244, 1, 0.000170938
*CLoad
pipe-1-1.244, 2, -0.00010995
*CLoad
pipe-1-1.244, 3, -3.10108e-012
*CLoad
pipe-1-1.245, 1, 0.000132161
*CLoad
pipe-1-1.245, 2, -0.000152659
*CLoad
pipe-1-1.245, 3, -5.55545e-013
*CLoad
pipe-1-1.246, 1, 8.43082e-005
*CLoad
pipe-1-1.246, 2, -0.0001844
*CLoad
pipe-1-1.246, 3, 2.14744e-012
*CLoad
pipe-1-1.247, 1, 2.88242e-005
*CLoad
pipe-1-1.247, 2, -0.00020049
*CLoad
pipe-1-1.247, 3, -4.58523e-012
*CLoad
pipe-1-1.248, 1, -2.88246e-005
*CLoad
pipe-1-1.248, 2, -0.00020049
*CLoad
pipe-1-1.248, 3, 4.64452e-012
*CLoad
pipe-1-1.249, 1, -8.43076e-005
*CLoad
pipe-1-1.249, 2, -0.0001844
*CLoad
pipe-1-1.249, 3, -2.31766e-012
*CLoad
pipe-1-1.250, 1, -0.000132161
*CLoad
pipe-1-1.250, 2, -0.000152659
*CLoad
pipe-1-1.250, 3, 7.6538e-014
*CLoad
pipe-1-1.251, 1, -0.000170938
*CLoad
pipe-1-1.251, 2, -0.000109951
*CLoad
pipe-1-1.251, 3, 3.08153e-012
*CLoad
pipe-1-1.252, 1, -0.00019446
*CLoad
pipe-1-1.252, 2, -5.70097e-005
*CLoad
pipe-1-1.252, 3, -1.45104e-012
*CLoad
pipe-1-1.253, 1, -0.000202019
*CLoad
pipe-1-1.253, 2, -3.70015e-009
*CLoad
pipe-1-1.253, 3, 2.50454e-012
*CLoad
pipe-1-1.254, 1, -0.000194506
*CLoad
pipe-1-1.254, 2, 5.70274e-005
*CLoad
pipe-1-1.254, 3, -6.504e-014
*CLoad
pipe-1-1.255, 1, -0.000170892
*CLoad
pipe-1-1.255, 2, 0.000109928
*CLoad
pipe-1-1.255, 3, -2.82283e-016
*CLoad
pipe-1-1.256, 1, -0.000132176
*CLoad
pipe-1-1.256, 2, 0.000152666
*CLoad
pipe-1-1.256, 3, 6.20659e-016
*CLoad
pipe-1-1.257, 1, -8.4308e-005
*CLoad
pipe-1-1.257, 2, 0.000184401
*CLoad
pipe-1-1.257, 3, 7.92181e-016
*CLoad
pipe-1-1.258, 1, -2.88246e-005
*CLoad
pipe-1-1.258, 2, 0.00020049
*CLoad
pipe-1-1.258, 3, 3.00244e-016
*CLoad
pipe-1-1.259, 1, 2.88243e-005
*CLoad
pipe-1-1.259, 2, 0.00020049
*CLoad
pipe-1-1.259, 3, 7.42155e-016
*CLoad
pipe-1-1.260, 1, 8.43086e-005
*CLoad
pipe-1-1.260, 2, 0.000184401
*CLoad
pipe-1-1.260, 3, -7.02175e-016
*CLoad
pipe-1-1.261, 1, 0.000132175
*CLoad
pipe-1-1.261, 2, 0.000152667
*CLoad
pipe-1-1.261, 3, -3.89691e-016
*CLoad
pipe-1-1.262, 1, 0.000170892
*CLoad
pipe-1-1.262, 2, 0.000109927
*CLoad
pipe-1-1.262, 3, 6.40872e-016
*CLoad
pipe-1-1.263, 1, 0.000194506
*CLoad
pipe-1-1.263, 2, 5.70273e-005
*CLoad
pipe-1-1.263, 3, -4.9998e-015
*CLoad
pipe-1-1.264, 1, 0.000202019
*CLoad
pipe-1-1.264, 2, -3.85319e-009
*CLoad
pipe-1-1.264, 3, 4.00663e-012
*CLoad
pipe-1-1.265, 1, 0.00019446
*CLoad
pipe-1-1.265, 2, -5.70095e-005
*CLoad
pipe-1-1.265, 3, -4.85063e-012
*CLoad
pipe-1-1.266, 1, 0.000170938
*CLoad
pipe-1-1.266, 2, -0.00010995
*CLoad
pipe-1-1.266, 3, 9.31001e-012
*CLoad
pipe-1-1.267, 1, 0.000132161
*CLoad
pipe-1-1.267, 2, -0.000152659
*CLoad
pipe-1-1.267, 3, 1.70355e-012
*CLoad
pipe-1-1.268, 1, 8.43082e-005
*CLoad
pipe-1-1.268, 2, -0.0001844
*CLoad
pipe-1-1.268, 3, -6.41352e-012
*CLoad
pipe-1-1.269, 1, 2.88242e-005
*CLoad
pipe-1-1.269, 2, -0.00020049
*CLoad
pipe-1-1.269, 3, 1.37051e-011
*CLoad
pipe-1-1.270, 1, -2.88246e-005
*CLoad
pipe-1-1.270, 2, -0.00020049
*CLoad
pipe-1-1.270, 3, -1.38857e-011
*CLoad
pipe-1-1.271, 1, -8.43075e-005
*CLoad
pipe-1-1.271, 2, -0.0001844
*CLoad
pipe-1-1.271, 3, 6.92445e-012
*CLoad
pipe-1-1.272, 1, -0.000132162
*CLoad
pipe-1-1.272, 2, -0.000152659
*CLoad
pipe-1-1.272, 3, -2.68667e-013
*CLoad
pipe-1-1.273, 1, -0.000170938
*CLoad
pipe-1-1.273, 2, -0.000109951
*CLoad
pipe-1-1.273, 3, -9.25202e-012
*CLoad
pipe-1-1.274, 1, -0.00019446
*CLoad
pipe-1-1.274, 2, -5.70097e-005
*CLoad
pipe-1-1.274, 3, 4.36502e-012
*CLoad
pipe-1-1.275, 1, -0.000202019
*CLoad
pipe-1-1.275, 2, -3.70565e-009
*CLoad
pipe-1-1.275, 3, 1.86087e-011
*CLoad
pipe-1-1.276, 1, -0.000194506
*CLoad
pipe-1-1.276, 2, 5.70275e-005
*CLoad
pipe-1-1.276, 3, -5.61613e-014
*CLoad
pipe-1-1.277, 1, -0.000170892
*CLoad
pipe-1-1.277, 2, 0.000109928
*CLoad
pipe-1-1.277, 3, -3.8878e-016
*CLoad
pipe-1-1.278, 1, -0.000132176
*CLoad
pipe-1-1.278, 2, 0.000152667
*CLoad
pipe-1-1.278, 3, 6.16808e-016
*CLoad
pipe-1-1.279, 1, -8.4308e-005
*CLoad
pipe-1-1.279, 2, 0.000184401
*CLoad
pipe-1-1.279, 3, 7.90257e-016
*CLoad
pipe-1-1.280, 1, -2.88246e-005
*CLoad
pipe-1-1.280, 2, 0.00020049
*CLoad
pipe-1-1.280, 3, 2.06582e-016
*CLoad
pipe-1-1.281, 1, 2.88243e-005
*CLoad
pipe-1-1.281, 2, 0.00020049
*CLoad
pipe-1-1.281, 3, 1.28911e-015
*CLoad
pipe-1-1.282, 1, 8.43086e-005
*CLoad
pipe-1-1.282, 2, 0.000184401
*CLoad
pipe-1-1.282, 3, -6.74319e-016
*CLoad
pipe-1-1.283, 1, 0.000132175
*CLoad
pipe-1-1.283, 2, 0.000152667
*CLoad
pipe-1-1.283, 3, -3.9229e-016
*CLoad
pipe-1-1.284, 1, 0.000170892
*CLoad
pipe-1-1.284, 2, 0.000109927
*CLoad
pipe-1-1.284, 3, 6.60147e-016
*CLoad
pipe-1-1.285, 1, 0.000194506
*CLoad
pipe-1-1.285, 2, 5.70274e-005
*CLoad
pipe-1-1.285, 3, -4.00002e-015
*CLoad
pipe-1-1.286, 1, 0.000202019
*CLoad
pipe-1-1.286, 2, -3.85233e-009
*CLoad
pipe-1-1.286, 3, -1.21062e-011
*CLoad
pipe-1-1.287, 1, 0.00019446
*CLoad
pipe-1-1.287, 2, -5.70095e-005
*CLoad
pipe-1-1.287, 3, 8.15225e-012
*CLoad
pipe-1-1.288, 1, 0.000170938
*CLoad
pipe-1-1.288, 2, -0.00010995
*CLoad
pipe-1-1.288, 3, -1.55444e-011
*CLoad
pipe-1-1.289, 1, 0.000132161
*CLoad
pipe-1-1.289, 2, -0.000152659
*CLoad
pipe-1-1.289, 3, -2.96145e-012
*CLoad
pipe-1-1.290, 1, 8.43081e-005
*CLoad
pipe-1-1.290, 2, -0.000184399
*CLoad
pipe-1-1.290, 3, 1.05781e-011
*CLoad
pipe-1-1.291, 1, 2.88242e-005
*CLoad
pipe-1-1.291, 2, -0.00020049
*CLoad
pipe-1-1.291, 3, -2.26647e-011
*CLoad
pipe-1-1.292, 1, -2.88245e-005
*CLoad
pipe-1-1.292, 2, -0.00020049
*CLoad
pipe-1-1.292, 3, 2.29641e-011
*CLoad
pipe-1-1.293, 1, -8.43075e-005
*CLoad
pipe-1-1.293, 2, -0.0001844
*CLoad
pipe-1-1.293, 3, -1.14346e-011
*CLoad
pipe-1-1.294, 1, -0.000132162
*CLoad
pipe-1-1.294, 2, -0.000152659
*CLoad
pipe-1-1.294, 3, 5.74144e-013
*CLoad
pipe-1-1.295, 1, -0.000170937
*CLoad
pipe-1-1.295, 2, -0.000109951
*CLoad
pipe-1-1.295, 3, 1.54486e-011
*CLoad
pipe-1-1.296, 1, -0.00019446
*CLoad
pipe-1-1.296, 2, -5.70098e-005
*CLoad
pipe-1-1.296, 3, -7.36274e-012
*CLoad
pipe-1-1.297, 1, -0.000202019
*CLoad
pipe-1-1.297, 2, -3.70996e-009
*CLoad
pipe-1-1.297, 3, -1.35781e-011
*CLoad
pipe-1-1.298, 1, -0.000194506
*CLoad
pipe-1-1.298, 2, 5.70275e-005
*CLoad
pipe-1-1.298, 3, -5.74781e-014
*CLoad
pipe-1-1.299, 1, -0.000170892
*CLoad
pipe-1-1.299, 2, 0.000109928
*CLoad
pipe-1-1.299, 3, -3.43005e-016
*CLoad
pipe-1-1.300, 1, -0.000132176
*CLoad
pipe-1-1.300, 2, 0.000152667
*CLoad
pipe-1-1.300, 3, 6.17716e-016
*CLoad
pipe-1-1.301, 1, -8.43079e-005
*CLoad
pipe-1-1.301, 2, 0.000184401
*CLoad
pipe-1-1.301, 3, 7.85022e-016
*CLoad
pipe-1-1.302, 1, -2.88246e-005
*CLoad
pipe-1-1.302, 2, 0.00020049
*CLoad
pipe-1-1.302, 3, 5.00161e-016
*CLoad
pipe-1-1.303, 1, 2.88242e-005
*CLoad
pipe-1-1.303, 2, 0.00020049
*CLoad
pipe-1-1.303, 3, 1.19668e-015
*CLoad
pipe-1-1.304, 1, 8.43085e-005
*CLoad
pipe-1-1.304, 2, 0.000184401
*CLoad
pipe-1-1.304, 3, -6.94424e-016
*CLoad
pipe-1-1.305, 1, 0.000132176
*CLoad
pipe-1-1.305, 2, 0.000152667
*CLoad
pipe-1-1.305, 3, -3.72027e-016
*CLoad
pipe-1-1.306, 1, 0.000170892
*CLoad
pipe-1-1.306, 2, 0.000109927
*CLoad
pipe-1-1.306, 3, 7.07598e-016
*CLoad
pipe-1-1.307, 1, 0.000194506
*CLoad
pipe-1-1.307, 2, 5.70274e-005
*CLoad
pipe-1-1.307, 3, -2.99279e-015
*CLoad
pipe-1-1.308, 1, 0.000202019
*CLoad
pipe-1-1.308, 2, -3.85026e-009
*CLoad
pipe-1-1.308, 3, 2.01328e-011
*CLoad
pipe-1-1.309, 1, 0.00019446
*CLoad
pipe-1-1.309, 2, -5.70096e-005
*CLoad
pipe-1-1.309, 3, -1.13247e-011
*CLoad
pipe-1-1.310, 1, 0.000170938
*CLoad
pipe-1-1.310, 2, -0.00010995
*CLoad
pipe-1-1.310, 3, 2.18183e-011
*CLoad
pipe-1-1.311, 1, 0.000132162
*CLoad
pipe-1-1.311, 2, -0.00015266
*CLoad
pipe-1-1.311, 3, 4.40254e-012
*CLoad
pipe-1-1.312, 1, 8.43081e-005
*CLoad
pipe-1-1.312, 2, -0.000184399
*CLoad
pipe-1-1.312, 3, -1.44933e-011
*CLoad
pipe-1-1.313, 1, 2.88241e-005
*CLoad
pipe-1-1.313, 2, -0.00020049
*CLoad
pipe-1-1.313, 3, 3.12747e-011
*CLoad
pipe-1-1.314, 1, -2.88244e-005
*CLoad
pipe-1-1.314, 2, -0.00020049
*CLoad
pipe-1-1.314, 3, -3.16958e-011
*CLoad
pipe-1-1.315, 1, -8.43075e-005
*CLoad
pipe-1-1.315, 2, -0.0001844
*CLoad
pipe-1-1.315, 3, 1.57009e-011
*CLoad
pipe-1-1.316, 1, -0.000132162
*CLoad
pipe-1-1.316, 2, -0.000152659
*CLoad
pipe-1-1.316, 3, -1.07027e-012
*CLoad
pipe-1-1.317, 1, -0.000170937
*CLoad
pipe-1-1.317, 2, -0.00010995
*CLoad
pipe-1-1.317, 3, -2.16866e-011
*CLoad
pipe-1-1.318, 1, -0.00019446
*CLoad
pipe-1-1.318, 2, -5.70098e-005
*CLoad
pipe-1-1.318, 3, 1.07409e-011
*CLoad
pipe-1-1.319, 1, -0.000202019
*CLoad
pipe-1-1.319, 2, -3.71205e-009
*CLoad
pipe-1-1.319, 3, 3.60522e-011
*CLoad
pipe-1-1.320, 1, -0.000194506
*CLoad
pipe-1-1.320, 2, 5.70276e-005
*CLoad
pipe-1-1.320, 3, 2.07938e-013
*CLoad
pipe-1-1.321, 1, -0.000170892
*CLoad
pipe-1-1.321, 2, 0.000109927
*CLoad
pipe-1-1.321, 3, -3.03605e-016
*CLoad
pipe-1-1.322, 1, -0.000132176
*CLoad
pipe-1-1.322, 2, 0.000152667
*CLoad
pipe-1-1.322, 3, 6.12681e-016
*CLoad
pipe-1-1.323, 1, -8.43079e-005
*CLoad
pipe-1-1.323, 2, 0.000184401
*CLoad
pipe-1-1.323, 3, 7.88085e-016
*CLoad
pipe-1-1.324, 1, -2.88245e-005
*CLoad
pipe-1-1.324, 2, 0.00020049
*CLoad
pipe-1-1.324, 3, 3.27802e-016
*CLoad
pipe-1-1.325, 1, 2.88242e-005
*CLoad
pipe-1-1.325, 2, 0.00020049
*CLoad
pipe-1-1.325, 3, 1.4698e-015
*CLoad
pipe-1-1.326, 1, 8.43085e-005
*CLoad
pipe-1-1.326, 2, 0.0001844
*CLoad
pipe-1-1.326, 3, -6.85147e-016
*CLoad
pipe-1-1.327, 1, 0.000132176
*CLoad
pipe-1-1.327, 2, 0.000152667
*CLoad
pipe-1-1.327, 3, -3.72883e-016
*CLoad
pipe-1-1.328, 1, 0.000170892
*CLoad
pipe-1-1.328, 2, 0.000109927
*CLoad
pipe-1-1.328, 3, 7.00932e-016
*CLoad
pipe-1-1.329, 1, 0.000194506
*CLoad
pipe-1-1.329, 2, 5.70274e-005
*CLoad
pipe-1-1.329, 3, 2.60732e-013
*CLoad
pipe-1-1.330, 1, 0.000202019
*CLoad
pipe-1-1.330, 2, -3.84599e-009
*CLoad
pipe-1-1.330, 3, -2.69219e-011
*CLoad
pipe-1-1.331, 1, 0.00019446
*CLoad
pipe-1-1.331, 2, -5.70097e-005
*CLoad
pipe-1-1.331, 3, 1.48595e-011
*CLoad
pipe-1-1.332, 1, 0.000170937
*CLoad
pipe-1-1.332, 2, -0.00010995
*CLoad
pipe-1-1.332, 3, -2.81463e-011
*CLoad
pipe-1-1.333, 1, 0.000132162
*CLoad
pipe-1-1.333, 2, -0.00015266
*CLoad
pipe-1-1.333, 3, -6.09784e-012
*CLoad
pipe-1-1.334, 1, 8.43081e-005
*CLoad
pipe-1-1.334, 2, -0.000184399
*CLoad
pipe-1-1.334, 3, 1.78473e-011
*CLoad
pipe-1-1.335, 1, 2.88239e-005
*CLoad
pipe-1-1.335, 2, -0.00020049
*CLoad
pipe-1-1.335, 3, -3.91868e-011
*CLoad
pipe-1-1.336, 1, -2.88243e-005
*CLoad
pipe-1-1.336, 2, -0.00020049
*CLoad
pipe-1-1.336, 3, 3.97275e-011
*CLoad
pipe-1-1.337, 1, -8.43074e-005
*CLoad
pipe-1-1.337, 2, -0.000184399
*CLoad
pipe-1-1.337, 3, -1.94162e-011
*CLoad
pipe-1-1.338, 1, -0.000132162
*CLoad
pipe-1-1.338, 2, -0.00015266
*CLoad
pipe-1-1.338, 3, 1.82942e-012
*CLoad
pipe-1-1.339, 1, -0.000170937
*CLoad
pipe-1-1.339, 2, -0.00010995
*CLoad
pipe-1-1.339, 3, 2.79803e-011
*CLoad
pipe-1-1.340, 1, -0.00019446
*CLoad
pipe-1-1.340, 2, -5.701e-005
*CLoad
pipe-1-1.340, 3, -1.40511e-011
*CLoad
pipe-1-1.341, 1, -0.00020202
*CLoad
pipe-1-1.341, 2, -3.70958e-009
*CLoad
pipe-1-1.341, 3, -3.14608e-011
*CLoad
pipe-1-1.342, 1, -0.000194506
*CLoad
pipe-1-1.342, 2, 5.70277e-005
*CLoad
pipe-1-1.342, 3, -3.62682e-013
*CLoad
pipe-1-1.343, 1, -0.000170891
*CLoad
pipe-1-1.343, 2, 0.000109927
*CLoad
pipe-1-1.343, 3, -3.05521e-016
*CLoad
pipe-1-1.344, 1, -0.000132177
*CLoad
pipe-1-1.344, 2, 0.000152667
*CLoad
pipe-1-1.344, 3, 6.19222e-016
*CLoad
pipe-1-1.345, 1, -8.43079e-005
*CLoad
pipe-1-1.345, 2, 0.000184401
*CLoad
pipe-1-1.345, 3, 7.92395e-016
*CLoad
pipe-1-1.346, 1, -2.88243e-005
*CLoad
pipe-1-1.346, 2, 0.00020049
*CLoad
pipe-1-1.346, 3, 2.76555e-016
*CLoad
pipe-1-1.347, 1, 2.8824e-005
*CLoad
pipe-1-1.347, 2, 0.00020049
*CLoad
pipe-1-1.347, 3, 1.34893e-015
*CLoad
pipe-1-1.348, 1, 8.43085e-005
*CLoad
pipe-1-1.348, 2, 0.0001844
*CLoad
pipe-1-1.348, 3, -6.74765e-016
*CLoad
pipe-1-1.349, 1, 0.000132176
*CLoad
pipe-1-1.349, 2, 0.000152668
*CLoad
pipe-1-1.349, 3, -3.91362e-016
*CLoad
pipe-1-1.350, 1, 0.000170892
*CLoad
pipe-1-1.350, 2, 0.000109927
*CLoad
pipe-1-1.350, 3, 6.37901e-016
*CLoad
pipe-1-1.351, 1, 0.000194506
*CLoad
pipe-1-1.351, 2, 5.70276e-005
*CLoad
pipe-1-1.351, 3, -3.03632e-013
*CLoad
pipe-1-1.352, 1, 0.000202019
*CLoad
pipe-1-1.352, 2, -3.8372e-009
*CLoad
pipe-1-1.352, 3, 3.45646e-011
*CLoad
pipe-1-1.353, 1, 0.000194461
*CLoad
pipe-1-1.353, 2, -5.701e-005
*CLoad
pipe-1-1.353, 3, -1.91212e-011
*CLoad
pipe-1-1.354, 1, 0.000170937
*CLoad
pipe-1-1.354, 2, -0.000109949
*CLoad
pipe-1-1.354, 3, 3.4531e-011
*CLoad
pipe-1-1.355, 1, 0.000132162
*CLoad
pipe-1-1.355, 2, -0.000152661
*CLoad
pipe-1-1.355, 3, 8.12362e-012
*CLoad
pipe-1-1.356, 1, 8.43082e-005
*CLoad
pipe-1-1.356, 2, -0.000184399
*CLoad
pipe-1-1.356, 3, -1.9992e-011
*CLoad
pipe-1-1.357, 1, 2.88236e-005
*CLoad
pipe-1-1.357, 2, -0.000200491
*CLoad
pipe-1-1.357, 3, 4.57144e-011
*CLoad
pipe-1-1.358, 1, -2.8824e-005
*CLoad
pipe-1-1.358, 2, -0.00020049
*CLoad
pipe-1-1.358, 3, -4.6378e-011
*CLoad
pipe-1-1.359, 1, -8.43075e-005
*CLoad
pipe-1-1.359, 2, -0.000184399
*CLoad
pipe-1-1.359, 3, 2.19332e-011
*CLoad
pipe-1-1.360, 1, -0.000132163
*CLoad
pipe-1-1.360, 2, -0.00015266
*CLoad
pipe-1-1.360, 3, -2.93182e-012
*CLoad
pipe-1-1.361, 1, -0.000170937
*CLoad
pipe-1-1.361, 2, -0.00010995
*CLoad
pipe-1-1.361, 3, -3.43337e-011
*CLoad
pipe-1-1.362, 1, -0.000194461
*CLoad
pipe-1-1.362, 2, -5.70103e-005
*CLoad
pipe-1-1.362, 3, 1.69632e-011
*CLoad
pipe-1-1.363, 1, -0.000202018
*CLoad
pipe-1-1.363, 2, -3.7042e-009
*CLoad
pipe-1-1.363, 3, 5.02921e-011
*CLoad
pipe-1-1.364, 1, -0.000194506
*CLoad
pipe-1-1.364, 2, 5.7028e-005
*CLoad
pipe-1-1.364, 3, -2.67284e-013
*CLoad
pipe-1-1.365, 1, -0.000170891
*CLoad
pipe-1-1.365, 2, 0.000109927
*CLoad
pipe-1-1.365, 3, -2.88513e-016
*CLoad
pipe-1-1.366, 1, -0.000132177
*CLoad
pipe-1-1.366, 2, 0.000152668
*CLoad
pipe-1-1.366, 3, 6.18397e-016
*CLoad
pipe-1-1.367, 1, -8.4308e-005
*CLoad
pipe-1-1.367, 2, 0.0001844
*CLoad
pipe-1-1.367, 3, 7.91119e-016
*CLoad
pipe-1-1.368, 1, -2.8824e-005
*CLoad
pipe-1-1.368, 2, 0.00020049
*CLoad
pipe-1-1.368, 3, 2.11847e-016
*CLoad
pipe-1-1.369, 1, 2.88237e-005
*CLoad
pipe-1-1.369, 2, 0.00020049
*CLoad
pipe-1-1.369, 3, 1.29286e-015
*CLoad
pipe-1-1.370, 1, 8.43086e-005
*CLoad
pipe-1-1.370, 2, 0.0001844
*CLoad
pipe-1-1.370, 3, -6.74725e-016
*CLoad
pipe-1-1.371, 1, 0.000132177
*CLoad
pipe-1-1.371, 2, 0.000152668
*CLoad
pipe-1-1.371, 3, -4.04878e-016
*CLoad
pipe-1-1.372, 1, 0.000170892
*CLoad
pipe-1-1.372, 2, 0.000109926
*CLoad
pipe-1-1.372, 3, 6.36756e-016
*CLoad
pipe-1-1.373, 1, 0.000194506
*CLoad
pipe-1-1.373, 2, 5.70279e-005
*CLoad
pipe-1-1.373, 3, -2.19719e-013
*CLoad
pipe-1-1.374, 1, 0.000202018
*CLoad
pipe-1-1.374, 2, -3.82546e-009
*CLoad
pipe-1-1.374, 3, -4.5095e-011
*CLoad
pipe-1-1.375, 1, 0.00019455
*CLoad
pipe-1-1.375, 2, -5.70374e-005
*CLoad
pipe-1-1.375, 3, 3.51938e-011
*CLoad
pipe-1-1.376, 1, 0.00017101
*CLoad
pipe-1-1.376, 2, -0.000109995
*CLoad
pipe-1-1.376, 3, -5.7267e-011
*CLoad
pipe-1-1.377, 1, 0.000132231
*CLoad
pipe-1-1.377, 2, -0.000152737
*CLoad
pipe-1-1.377, 3, -3.05504e-012
*CLoad
pipe-1-1.378, 1, 8.43463e-005
*CLoad
pipe-1-1.378, 2, -0.000184484
*CLoad
pipe-1-1.378, 3, 1.76467e-011
*CLoad
pipe-1-1.379, 1, 2.88373e-005
*CLoad
pipe-1-1.379, 2, -0.000200584
*CLoad
pipe-1-1.379, 3, -4.74188e-011
*CLoad
pipe-1-1.380, 1, -2.88376e-005
*CLoad
pipe-1-1.380, 2, -0.000200584
*CLoad
pipe-1-1.380, 3, 4.82511e-011
*CLoad
pipe-1-1.381, 1, -8.43457e-005
*CLoad
pipe-1-1.381, 2, -0.000184484
*CLoad
pipe-1-1.381, 3, -2.06291e-011
*CLoad
pipe-1-1.382, 1, -0.000132231
*CLoad
pipe-1-1.382, 2, -0.000152737
*CLoad
pipe-1-1.382, 3, -2.11907e-012
*CLoad
pipe-1-1.383, 1, -0.00017101
*CLoad
pipe-1-1.383, 2, -0.000109996
*CLoad
pipe-1-1.383, 3, 5.71329e-011
*CLoad
pipe-1-1.384, 1, -0.00019455
*CLoad
pipe-1-1.384, 2, -5.70377e-005
*CLoad
pipe-1-1.384, 3, -3.31383e-011
*CLoad
pipe-1-1.385, 1, -0.000202118
*CLoad
pipe-1-1.385, 2, -3.67838e-009
*CLoad
pipe-1-1.385, 3, -4.02378e-011
*CLoad
pipe-1-1.386, 1, -0.000194596
*CLoad
pipe-1-1.386, 2, 5.70552e-005
*CLoad
pipe-1-1.386, 3, 6.6232e-014
*CLoad
pipe-1-1.387, 1, -0.000170965
*CLoad
pipe-1-1.387, 2, 0.000109973
*CLoad
pipe-1-1.387, 3, -2.91988e-016
*CLoad
pipe-1-1.388, 1, -0.000132245
*CLoad
pipe-1-1.388, 2, 0.000152744
*CLoad
pipe-1-1.388, 3, 6.17809e-016
*CLoad
pipe-1-1.389, 1, -8.43461e-005
*CLoad
pipe-1-1.389, 2, 0.000184485
*CLoad
pipe-1-1.389, 3, 7.93128e-016
*CLoad
pipe-1-1.390, 1, -2.88377e-005
*CLoad
pipe-1-1.390, 2, 0.000200584
*CLoad
pipe-1-1.390, 3, 3.14281e-016
*CLoad
pipe-1-1.391, 1, 2.88373e-005
*CLoad
pipe-1-1.391, 2, 0.000200584
*CLoad
pipe-1-1.391, 3, 1.33535e-015
*CLoad
pipe-1-1.392, 1, 8.43467e-005
*CLoad
pipe-1-1.392, 2, 0.000184485
*CLoad
pipe-1-1.392, 3, -6.73739e-016
*CLoad
pipe-1-1.393, 1, 0.000132245
*CLoad
pipe-1-1.393, 2, 0.000152745
*CLoad
pipe-1-1.393, 3, -7.70698e-016
*CLoad
pipe-1-1.394, 1, 0.000170965
*CLoad
pipe-1-1.394, 2, 0.000109972
*CLoad
pipe-1-1.394, 3, 1.22811e-015
*CLoad
pipe-1-1.395, 1, 0.000194595
*CLoad
pipe-1-1.395, 2, 5.70551e-005
*CLoad
pipe-1-1.395, 3, 1.24424e-013
*CLoad
pipe-1-1.396, 1, 0.000202118
*CLoad
pipe-1-1.396, 2, -3.79219e-009
*CLoad
pipe-1-1.396, 3, 5.16424e-011
*CLoad
pipe-1-1.397, 1, 0.00019455
*CLoad
pipe-1-1.397, 2, -5.70374e-005
*CLoad
pipe-1-1.397, 3, -3.51968e-011
*CLoad
pipe-1-1.398, 1, 0.00017101
*CLoad
pipe-1-1.398, 2, -0.000109995
*CLoad
pipe-1-1.398, 3, 5.72663e-011
*CLoad
pipe-1-1.399, 1, 0.000132231
*CLoad
pipe-1-1.399, 2, -0.000152737
*CLoad
pipe-1-1.399, 3, 3.05503e-012
*CLoad
pipe-1-1.400, 1, 8.43463e-005
*CLoad
pipe-1-1.400, 2, -0.000184484
*CLoad
pipe-1-1.400, 3, -1.76463e-011
*CLoad
pipe-1-1.401, 1, 2.88373e-005
*CLoad
pipe-1-1.401, 2, -0.000200584
*CLoad
pipe-1-1.401, 3, 4.74179e-011
*CLoad
pipe-1-1.402, 1, -2.88376e-005
*CLoad
pipe-1-1.402, 2, -0.000200584
*CLoad
pipe-1-1.402, 3, -4.82513e-011
*CLoad
pipe-1-1.403, 1, -8.43457e-005
*CLoad
pipe-1-1.403, 2, -0.000184484
*CLoad
pipe-1-1.403, 3, 2.06283e-011
*CLoad
pipe-1-1.404, 1, -0.000132231
*CLoad
pipe-1-1.404, 2, -0.000152737
*CLoad
pipe-1-1.404, 3, 2.11869e-012
*CLoad
pipe-1-1.405, 1, -0.00017101
*CLoad
pipe-1-1.405, 2, -0.000109996
*CLoad
pipe-1-1.405, 3, -5.71324e-011
*CLoad
pipe-1-1.406, 1, -0.00019455
*CLoad
pipe-1-1.406, 2, -5.70376e-005
*CLoad
pipe-1-1.406, 3, 3.31399e-011
*CLoad
pipe-1-1.407, 1, -0.000202118
*CLoad
pipe-1-1.407, 2, -3.6847e-009
*CLoad
pipe-1-1.407, 3, 5.34324e-011
*CLoad
pipe-1-1.408, 1, -0.000194595
*CLoad
pipe-1-1.408, 2, 5.70552e-005
*CLoad
pipe-1-1.408, 3, -1.8764e-013
*CLoad
pipe-1-1.409, 1, -0.000170965
*CLoad
pipe-1-1.409, 2, 0.000109973
*CLoad
pipe-1-1.409, 3, -2.96864e-016
*CLoad
pipe-1-1.410, 1, -0.000132245
*CLoad
pipe-1-1.410, 2, 0.000152744
*CLoad
pipe-1-1.410, 3, 6.17718e-016
*CLoad
pipe-1-1.411, 1, -8.43461e-005
*CLoad
pipe-1-1.411, 2, 0.000184485
*CLoad
pipe-1-1.411, 3, 7.93114e-016
*CLoad
pipe-1-1.412, 1, -2.88377e-005
*CLoad
pipe-1-1.412, 2, 0.000200584
*CLoad
pipe-1-1.412, 3, 3.28758e-016
*CLoad
pipe-1-1.413, 1, 2.88373e-005
*CLoad
pipe-1-1.413, 2, 0.000200584
*CLoad
pipe-1-1.413, 3, 1.3486e-015
*CLoad
pipe-1-1.414, 1, 8.43467e-005
*CLoad
pipe-1-1.414, 2, 0.000184485
*CLoad
pipe-1-1.414, 3, -6.73379e-016
*CLoad
pipe-1-1.415, 1, 0.000132245
*CLoad
pipe-1-1.415, 2, 0.000152745
*CLoad
pipe-1-1.415, 3, -3.94642e-016
*CLoad
pipe-1-1.416, 1, 0.000170965
*CLoad
pipe-1-1.416, 2, 0.000109972
*CLoad
pipe-1-1.416, 3, 6.08347e-016
*CLoad
pipe-1-1.417, 1, 0.000194595
*CLoad
pipe-1-1.417, 2, 5.70551e-005
*CLoad
pipe-1-1.417, 3, -1.25945e-013
*CLoad
pipe-1-1.418, 1, 0.000202118
*CLoad
pipe-1-1.418, 2, -3.79219e-009
*CLoad
pipe-1-1.418, 3, -5.16278e-011
*CLoad
pipe-1-1.419, 1, 0.000194461
*CLoad
pipe-1-1.419, 2, -5.70101e-005
*CLoad
pipe-1-1.419, 3, 1.91232e-011
*CLoad
pipe-1-1.420, 1, 0.000170937
*CLoad
pipe-1-1.420, 2, -0.000109949
*CLoad
pipe-1-1.420, 3, -3.45304e-011
*CLoad
pipe-1-1.421, 1, 0.000132162
*CLoad
pipe-1-1.421, 2, -0.000152661
*CLoad
pipe-1-1.421, 3, -8.12315e-012
*CLoad
pipe-1-1.422, 1, 8.43082e-005
*CLoad
pipe-1-1.422, 2, -0.000184399
*CLoad
pipe-1-1.422, 3, 1.99922e-011
*CLoad
pipe-1-1.423, 1, 2.88236e-005
*CLoad
pipe-1-1.423, 2, -0.000200491
*CLoad
pipe-1-1.423, 3, -4.57146e-011
*CLoad
pipe-1-1.424, 1, -2.8824e-005
*CLoad
pipe-1-1.424, 2, -0.00020049
*CLoad
pipe-1-1.424, 3, 4.63769e-011
*CLoad
pipe-1-1.425, 1, -8.43075e-005
*CLoad
pipe-1-1.425, 2, -0.000184399
*CLoad
pipe-1-1.425, 3, -2.19338e-011
*CLoad
pipe-1-1.426, 1, -0.000132163
*CLoad
pipe-1-1.426, 2, -0.00015266
*CLoad
pipe-1-1.426, 3, 2.93121e-012
*CLoad
pipe-1-1.427, 1, -0.000170937
*CLoad
pipe-1-1.427, 2, -0.00010995
*CLoad
pipe-1-1.427, 3, 3.4333e-011
*CLoad
pipe-1-1.428, 1, -0.000194461
*CLoad
pipe-1-1.428, 2, -5.70103e-005
*CLoad
pipe-1-1.428, 3, -1.69549e-011
*CLoad
pipe-1-1.429, 1, -0.000202018
*CLoad
pipe-1-1.429, 2, -3.72327e-009
*CLoad
pipe-1-1.429, 3, -3.71306e-011
*CLoad
pipe-1-1.430, 1, -0.000194506
*CLoad
pipe-1-1.430, 2, 5.70281e-005
*CLoad
pipe-1-1.430, 3, 1.8385e-013
*CLoad
pipe-1-1.431, 1, -0.000170891
*CLoad
pipe-1-1.431, 2, 0.000109927
*CLoad
pipe-1-1.431, 3, -2.92826e-016
*CLoad
pipe-1-1.432, 1, -0.000132177
*CLoad
pipe-1-1.432, 2, 0.000152668
*CLoad
pipe-1-1.432, 3, 6.18385e-016
*CLoad
pipe-1-1.433, 1, -8.4308e-005
*CLoad
pipe-1-1.433, 2, 0.0001844
*CLoad
pipe-1-1.433, 3, 7.91091e-016
*CLoad
pipe-1-1.434, 1, -2.8824e-005
*CLoad
pipe-1-1.434, 2, 0.00020049
*CLoad
pipe-1-1.434, 3, 3.30381e-016
*CLoad
pipe-1-1.435, 1, 2.88237e-005
*CLoad
pipe-1-1.435, 2, 0.00020049
*CLoad
pipe-1-1.435, 3, 1.40827e-015
*CLoad
pipe-1-1.436, 1, 8.43086e-005
*CLoad
pipe-1-1.436, 2, 0.0001844
*CLoad
pipe-1-1.436, 3, -6.74716e-016
*CLoad
pipe-1-1.437, 1, 0.000132177
*CLoad
pipe-1-1.437, 2, 0.000152668
*CLoad
pipe-1-1.437, 3, -3.92341e-016
*CLoad
pipe-1-1.438, 1, 0.000170892
*CLoad
pipe-1-1.438, 2, 0.000109926
*CLoad
pipe-1-1.438, 3, 4.93357e-016
*CLoad
pipe-1-1.439, 1, 0.000194506
*CLoad
pipe-1-1.439, 2, 5.70279e-005
*CLoad
pipe-1-1.439, 3, 2.24081e-013
*CLoad
pipe-1-1.440, 1, 0.000202018
*CLoad
pipe-1-1.440, 2, -3.82547e-009
*CLoad
pipe-1-1.440, 3, 4.50814e-011
*CLoad
pipe-1-1.441, 1, 0.00019446
*CLoad
pipe-1-1.441, 2, -5.70097e-005
*CLoad
pipe-1-1.441, 3, -1.48593e-011
*CLoad
pipe-1-1.442, 1, 0.000170937
*CLoad
pipe-1-1.442, 2, -0.00010995
*CLoad
pipe-1-1.442, 3, 2.81452e-011
*CLoad
pipe-1-1.443, 1, 0.000132162
*CLoad
pipe-1-1.443, 2, -0.00015266
*CLoad
pipe-1-1.443, 3, 6.09775e-012
*CLoad
pipe-1-1.444, 1, 8.43081e-005
*CLoad
pipe-1-1.444, 2, -0.000184399
*CLoad
pipe-1-1.444, 3, -1.78466e-011
*CLoad
pipe-1-1.445, 1, 2.88239e-005
*CLoad
pipe-1-1.445, 2, -0.00020049
*CLoad
pipe-1-1.445, 3, 3.91849e-011
*CLoad
pipe-1-1.446, 1, -2.88243e-005
*CLoad
pipe-1-1.446, 2, -0.00020049
*CLoad
pipe-1-1.446, 3, -3.97271e-011
*CLoad
pipe-1-1.447, 1, -8.43074e-005
*CLoad
pipe-1-1.447, 2, -0.000184399
*CLoad
pipe-1-1.447, 3, 1.9415e-011
*CLoad
pipe-1-1.448, 1, -0.000132162
*CLoad
pipe-1-1.448, 2, -0.00015266
*CLoad
pipe-1-1.448, 3, -1.82982e-012
*CLoad
pipe-1-1.449, 1, -0.000170937
*CLoad
pipe-1-1.449, 2, -0.00010995
*CLoad
pipe-1-1.449, 3, -2.79794e-011
*CLoad
pipe-1-1.450, 1, -0.00019446
*CLoad
pipe-1-1.450, 2, -5.701e-005
*CLoad
pipe-1-1.450, 3, 1.40555e-011
*CLoad
pipe-1-1.451, 1, -0.00020202
*CLoad
pipe-1-1.451, 2, -3.74142e-009
*CLoad
pipe-1-1.451, 3, 4.45796e-011
*CLoad
pipe-1-1.452, 1, -0.000194506
*CLoad
pipe-1-1.452, 2, 5.70277e-005
*CLoad
pipe-1-1.452, 3, 2.57756e-013
*CLoad
pipe-1-1.453, 1, -0.000170891
*CLoad
pipe-1-1.453, 2, 0.000109927
*CLoad
pipe-1-1.453, 3, -2.88349e-016
*CLoad
pipe-1-1.454, 1, -0.000132177
*CLoad
pipe-1-1.454, 2, 0.000152667
*CLoad
pipe-1-1.454, 3, 6.19239e-016
*CLoad
pipe-1-1.455, 1, -8.43079e-005
*CLoad
pipe-1-1.455, 2, 0.000184401
*CLoad
pipe-1-1.455, 3, 7.92372e-016
*CLoad
pipe-1-1.456, 1, -2.88243e-005
*CLoad
pipe-1-1.456, 2, 0.00020049
*CLoad
pipe-1-1.456, 3, 2.05469e-016
*CLoad
pipe-1-1.457, 1, 2.8824e-005
*CLoad
pipe-1-1.457, 2, 0.00020049
*CLoad
pipe-1-1.457, 3, 1.28756e-015
*CLoad
pipe-1-1.458, 1, 8.43085e-005
*CLoad
pipe-1-1.458, 2, 0.0001844
*CLoad
pipe-1-1.458, 3, -6.74718e-016
*CLoad
pipe-1-1.459, 1, 0.000132176
*CLoad
pipe-1-1.459, 2, 0.000152668
*CLoad
pipe-1-1.459, 3, -3.91372e-016
*CLoad
pipe-1-1.460, 1, 0.000170892
*CLoad
pipe-1-1.460, 2, 0.000109927
*CLoad
pipe-1-1.460, 3, 6.37954e-016
*CLoad
pipe-1-1.461, 1, 0.000194506
*CLoad
pipe-1-1.461, 2, 5.70276e-005
*CLoad
pipe-1-1.461, 3, 3.04901e-013
*CLoad
pipe-1-1.462, 1, 0.000202019
*CLoad
pipe-1-1.462, 2, -3.83723e-009
*CLoad
pipe-1-1.462, 3, -3.45629e-011
*CLoad
pipe-1-1.463, 1, 0.00019446
*CLoad
pipe-1-1.463, 2, -5.70096e-005
*CLoad
pipe-1-1.463, 3, 1.13239e-011
*CLoad
pipe-1-1.464, 1, 0.000170938
*CLoad
pipe-1-1.464, 2, -0.00010995
*CLoad
pipe-1-1.464, 3, -2.18178e-011
*CLoad
pipe-1-1.465, 1, 0.000132162
*CLoad
pipe-1-1.465, 2, -0.00015266
*CLoad
pipe-1-1.465, 3, -4.40217e-012
*CLoad
pipe-1-1.466, 1, 8.43081e-005
*CLoad
pipe-1-1.466, 2, -0.000184399
*CLoad
pipe-1-1.466, 3, 1.44932e-011
*CLoad
pipe-1-1.467, 1, 2.88241e-005
*CLoad
pipe-1-1.467, 2, -0.00020049
*CLoad
pipe-1-1.467, 3, -3.12744e-011
*CLoad
pipe-1-1.468, 1, -2.88244e-005
*CLoad
pipe-1-1.468, 2, -0.00020049
*CLoad
pipe-1-1.468, 3, 3.16943e-011
*CLoad
pipe-1-1.469, 1, -8.43075e-005
*CLoad
pipe-1-1.469, 2, -0.0001844
*CLoad
pipe-1-1.469, 3, -1.57012e-011
*CLoad
pipe-1-1.470, 1, -0.000132162
*CLoad
pipe-1-1.470, 2, -0.000152659
*CLoad
pipe-1-1.470, 3, 1.06977e-012
*CLoad
pipe-1-1.471, 1, -0.000170937
*CLoad
pipe-1-1.471, 2, -0.00010995
*CLoad
pipe-1-1.471, 3, 2.16859e-011
*CLoad
pipe-1-1.472, 1, -0.00019446
*CLoad
pipe-1-1.472, 2, -5.70098e-005
*CLoad
pipe-1-1.472, 3, -1.07356e-011
*CLoad
pipe-1-1.473, 1, -0.000202019
*CLoad
pipe-1-1.473, 2, -3.75663e-009
*CLoad
pipe-1-1.473, 3, -2.29061e-011
*CLoad
pipe-1-1.474, 1, -0.000194506
*CLoad
pipe-1-1.474, 2, 5.70276e-005
*CLoad
pipe-1-1.474, 3, -3.0723e-013
*CLoad
pipe-1-1.475, 1, -0.000170892
*CLoad
pipe-1-1.475, 2, 0.000109927
*CLoad
pipe-1-1.475, 3, -2.91276e-016
*CLoad
pipe-1-1.476, 1, -0.000132176
*CLoad
pipe-1-1.476, 2, 0.000152667
*CLoad
pipe-1-1.476, 3, 6.12607e-016
*CLoad
pipe-1-1.477, 1, -8.43079e-005
*CLoad
pipe-1-1.477, 2, 0.000184401
*CLoad
pipe-1-1.477, 3, 7.89248e-016
*CLoad
pipe-1-1.478, 1, -2.88245e-005
*CLoad
pipe-1-1.478, 2, 0.00020049
*CLoad
pipe-1-1.478, 3, 3.19817e-016
*CLoad
pipe-1-1.479, 1, 2.88241e-005
*CLoad
pipe-1-1.479, 2, 0.00020049
*CLoad
pipe-1-1.479, 3, 1.34392e-015
*CLoad
pipe-1-1.480, 1, 8.43085e-005
*CLoad
pipe-1-1.480, 2, 0.0001844
*CLoad
pipe-1-1.480, 3, -6.71721e-016
*CLoad
pipe-1-1.481, 1, 0.000132176
*CLoad
pipe-1-1.481, 2, 0.000152667
*CLoad
pipe-1-1.481, 3, -3.87501e-016
*CLoad
pipe-1-1.482, 1, 0.000170892
*CLoad
pipe-1-1.482, 2, 0.000109927
*CLoad
pipe-1-1.482, 3, 6.35789e-016
*CLoad
pipe-1-1.483, 1, 0.000194506
*CLoad
pipe-1-1.483, 2, 5.70274e-005
*CLoad
pipe-1-1.483, 3, -2.59282e-013
*CLoad
pipe-1-1.484, 1, 0.000202019
*CLoad
pipe-1-1.484, 2, -3.84603e-009
*CLoad
pipe-1-1.484, 3, 2.69217e-011
*CLoad
pipe-1-1.485, 1, 0.00019446
*CLoad
pipe-1-1.485, 2, -5.70095e-005
*CLoad
pipe-1-1.485, 3, -8.15214e-012
*CLoad
pipe-1-1.486, 1, 0.000170938
*CLoad
pipe-1-1.486, 2, -0.00010995
*CLoad
pipe-1-1.486, 3, 1.55433e-011
*CLoad
pipe-1-1.487, 1, 0.000132161
*CLoad
pipe-1-1.487, 2, -0.000152659
*CLoad
pipe-1-1.487, 3, 2.96141e-012
*CLoad
pipe-1-1.488, 1, 8.43081e-005
*CLoad
pipe-1-1.488, 2, -0.000184399
*CLoad
pipe-1-1.488, 3, -1.05772e-011
*CLoad
pipe-1-1.489, 1, 2.88242e-005
*CLoad
pipe-1-1.489, 2, -0.00020049
*CLoad
pipe-1-1.489, 3, 2.26627e-011
*CLoad
pipe-1-1.490, 1, -2.88245e-005
*CLoad
pipe-1-1.490, 2, -0.00020049
*CLoad
pipe-1-1.490, 3, -2.29634e-011
*CLoad
pipe-1-1.491, 1, -8.43075e-005
*CLoad
pipe-1-1.491, 2, -0.0001844
*CLoad
pipe-1-1.491, 3, 1.14332e-011
*CLoad
pipe-1-1.492, 1, -0.000132162
*CLoad
pipe-1-1.492, 2, -0.000152659
*CLoad
pipe-1-1.492, 3, -5.74606e-013
*CLoad
pipe-1-1.493, 1, -0.000170937
*CLoad
pipe-1-1.493, 2, -0.000109951
*CLoad
pipe-1-1.493, 3, -1.54477e-011
*CLoad
pipe-1-1.494, 1, -0.00019446
*CLoad
pipe-1-1.494, 2, -5.70098e-005
*CLoad
pipe-1-1.494, 3, 7.36747e-012
*CLoad
pipe-1-1.495, 1, -0.000202019
*CLoad
pipe-1-1.495, 2, -3.7673e-009
*CLoad
pipe-1-1.495, 3, 2.67244e-011
*CLoad
pipe-1-1.496, 1, -0.000194506
*CLoad
pipe-1-1.496, 2, 5.70276e-005
*CLoad
pipe-1-1.496, 3, -3.93361e-014
*CLoad
pipe-1-1.497, 1, -0.000170892
*CLoad
pipe-1-1.497, 2, 0.000109928
*CLoad
pipe-1-1.497, 3, -2.94099e-016
*CLoad
pipe-1-1.498, 1, -0.000132176
*CLoad
pipe-1-1.498, 2, 0.000152667
*CLoad
pipe-1-1.498, 3, 6.17747e-016
*CLoad
pipe-1-1.499, 1, -8.43079e-005
*CLoad
pipe-1-1.499, 2, 0.000184401
*CLoad
pipe-1-1.499, 3, 8.26268e-016
*CLoad
pipe-1-1.500, 1, -2.88246e-005
*CLoad
pipe-1-1.500, 2, 0.00020049
*CLoad
pipe-1-1.500, 3, 3.26851e-016
*CLoad
pipe-1-1.501, 1, 2.88242e-005
*CLoad
pipe-1-1.501, 2, 0.00020049
*CLoad
pipe-1-1.501, 3, 1.36915e-015
*CLoad
pipe-1-1.502, 1, 8.43085e-005
*CLoad
pipe-1-1.502, 2, 0.000184401
*CLoad
pipe-1-1.502, 3, -7.29032e-016
*CLoad
pipe-1-1.503, 1, 0.000132176
*CLoad
pipe-1-1.503, 2, 0.000152667
*CLoad
pipe-1-1.503, 3, -3.88606e-016
*CLoad
pipe-1-1.504, 1, 0.000170892
*CLoad
pipe-1-1.504, 2, 0.000109927
*CLoad
pipe-1-1.504, 3, 6.35614e-016
*CLoad
pipe-1-1.505, 1, 0.000194506
*CLoad
pipe-1-1.505, 2, 5.70274e-005
*CLoad
pipe-1-1.505, 3, 4.72718e-015
*CLoad
pipe-1-1.506, 1, 0.000202019
*CLoad
pipe-1-1.506, 2, -3.85028e-009
*CLoad
pipe-1-1.506, 3, -2.0131e-011
*CLoad
pipe-1-1.507, 1, 0.00019446
*CLoad
pipe-1-1.507, 2, -5.70095e-005
*CLoad
pipe-1-1.507, 3, 4.84987e-012
*CLoad
pipe-1-1.508, 1, 0.000170938
*CLoad
pipe-1-1.508, 2, -0.00010995
*CLoad
pipe-1-1.508, 3, -9.30948e-012
*CLoad
pipe-1-1.509, 1, 0.000132161
*CLoad
pipe-1-1.509, 2, -0.000152659
*CLoad
pipe-1-1.509, 3, -1.70322e-012
*CLoad
pipe-1-1.510, 1, 8.43082e-005
*CLoad
pipe-1-1.510, 2, -0.0001844
*CLoad
pipe-1-1.510, 3, 6.41333e-012
*CLoad
pipe-1-1.511, 1, 2.88242e-005
*CLoad
pipe-1-1.511, 2, -0.00020049
*CLoad
pipe-1-1.511, 3, -1.37048e-011
*CLoad
pipe-1-1.512, 1, -2.88246e-005
*CLoad
pipe-1-1.512, 2, -0.00020049
*CLoad
pipe-1-1.512, 3, 1.3884e-011
*CLoad
pipe-1-1.513, 1, -8.43075e-005
*CLoad
pipe-1-1.513, 2, -0.0001844
*CLoad
pipe-1-1.513, 3, -6.92464e-012
*CLoad
pipe-1-1.514, 1, -0.000132162
*CLoad
pipe-1-1.514, 2, -0.000152659
*CLoad
pipe-1-1.514, 3, 2.68205e-013
*CLoad
pipe-1-1.515, 1, -0.000170938
*CLoad
pipe-1-1.515, 2, -0.000109951
*CLoad
pipe-1-1.515, 3, 9.2514e-012
*CLoad
pipe-1-1.516, 1, -0.00019446
*CLoad
pipe-1-1.516, 2, -5.70097e-005
*CLoad
pipe-1-1.516, 3, -4.36003e-012
*CLoad
pipe-1-1.517, 1, -0.000202019
*CLoad
pipe-1-1.517, 2, -3.77575e-009
*CLoad
pipe-1-1.517, 3, -5.45873e-012
*CLoad
pipe-1-1.518, 1, -0.000194506
*CLoad
pipe-1-1.518, 2, 5.70275e-005
*CLoad
pipe-1-1.518, 3, -3.20822e-014
*CLoad
pipe-1-1.519, 1, -0.000170892
*CLoad
pipe-1-1.519, 2, 0.000109928
*CLoad
pipe-1-1.519, 3, -2.93972e-016
*CLoad
pipe-1-1.520, 1, -0.000132176
*CLoad
pipe-1-1.520, 2, 0.000152667
*CLoad
pipe-1-1.520, 3, 6.16803e-016
*CLoad
pipe-1-1.521, 1, -8.4308e-005
*CLoad
pipe-1-1.521, 2, 0.000184401
*CLoad
pipe-1-1.521, 3, 9.23166e-016
*CLoad
pipe-1-1.522, 1, -2.88246e-005
*CLoad
pipe-1-1.522, 2, 0.00020049
*CLoad
pipe-1-1.522, 3, 1.08448e-015
*CLoad
pipe-1-1.523, 1, 2.88243e-005
*CLoad
pipe-1-1.523, 2, 0.00020049
*CLoad
pipe-1-1.523, 3, 1.03877e-015
*CLoad
pipe-1-1.524, 1, 8.43086e-005
*CLoad
pipe-1-1.524, 2, 0.000184401
*CLoad
pipe-1-1.524, 3, -7.53256e-016
*CLoad
pipe-1-1.525, 1, 0.000132175
*CLoad
pipe-1-1.525, 2, 0.000152667
*CLoad
pipe-1-1.525, 3, -3.96376e-016
*CLoad
pipe-1-1.526, 1, 0.000170892
*CLoad
pipe-1-1.526, 2, 0.000109927
*CLoad
pipe-1-1.526, 3, 6.36313e-016
*CLoad
pipe-1-1.527, 1, 0.000194506
*CLoad
pipe-1-1.527, 2, 5.70274e-005
*CLoad
pipe-1-1.527, 3, 5.28229e-015
*CLoad
pipe-1-1.528, 1, 0.000202019
*CLoad
pipe-1-1.528, 2, -3.85233e-009
*CLoad
pipe-1-1.528, 3, 1.21058e-011
*CLoad
pipe-1-1.529, 1, 0.00019446
*CLoad
pipe-1-1.529, 2, -5.70094e-005
*CLoad
pipe-1-1.529, 3, -1.60126e-012
*CLoad
pipe-1-1.530, 1, 0.000170938
*CLoad
pipe-1-1.530, 2, -0.00010995
*CLoad
pipe-1-1.530, 3, 3.09996e-012
*CLoad
pipe-1-1.531, 1, 0.000132161
*CLoad
pipe-1-1.531, 2, -0.000152659
*CLoad
pipe-1-1.531, 3, 5.55546e-013
*CLoad
pipe-1-1.532, 1, 8.43082e-005
*CLoad
pipe-1-1.532, 2, -0.0001844
*CLoad
pipe-1-1.532, 3, -2.14654e-012
*CLoad
pipe-1-1.533, 1, 2.88242e-005
*CLoad
pipe-1-1.533, 2, -0.00020049
*CLoad
pipe-1-1.533, 3, 4.58315e-012
*CLoad
pipe-1-1.534, 1, -2.88246e-005
*CLoad
pipe-1-1.534, 2, -0.00020049
*CLoad
pipe-1-1.534, 3, -4.6438e-012
*CLoad
pipe-1-1.535, 1, -8.43076e-005
*CLoad
pipe-1-1.535, 2, -0.0001844
*CLoad
pipe-1-1.535, 3, 2.31623e-012
*CLoad
pipe-1-1.536, 1, -0.000132161
*CLoad
pipe-1-1.536, 2, -0.000152659
*CLoad
pipe-1-1.536, 3, -7.69861e-014
*CLoad
pipe-1-1.537, 1, -0.000170938
*CLoad
pipe-1-1.537, 2, -0.000109951
*CLoad
pipe-1-1.537, 3, -3.08059e-012
*CLoad
pipe-1-1.538, 1, -0.00019446
*CLoad
pipe-1-1.538, 2, -5.70097e-005
*CLoad
pipe-1-1.538, 3, 1.45554e-012
*CLoad
pipe-1-1.539, 1, -0.000202019
*CLoad
pipe-1-1.539, 2, -3.78301e-009
*CLoad
pipe-1-1.539, 3, 1.06391e-011
*CLoad
pipe-1-1.540, 1, -0.000194506
*CLoad
pipe-1-1.540, 2, 5.70275e-005
*CLoad
pipe-1-1.540, 3, -3.74307e-014
*CLoad
pipe-1-1.541, 1, -0.000170892
*CLoad
pipe-1-1.541, 2, 0.000109928
*CLoad
pipe-1-1.541, 3, -2.97472e-016
*CLoad
pipe-1-1.542, 1, -0.000132176
*CLoad
pipe-1-1.542, 2, 0.000152666
*CLoad
pipe-1-1.542, 3, 6.17839e-016
*CLoad
pipe-1-1.543, 1, -8.4308e-005
*CLoad
pipe-1-1.543, 2, 0.000184401
*CLoad
pipe-1-1.543, 3, 7.95787e-016
*CLoad
pipe-1-1.544, 1, -2.88246e-005
*CLoad
pipe-1-1.544, 2, 0.00020049
*CLoad
pipe-1-1.544, 3, 2.29368e-016
*CLoad
pipe-1-1.545, 1, 2.88243e-005
*CLoad
pipe-1-1.545, 2, 0.00020049
*CLoad
pipe-1-1.545, 3, 1.33407e-015
*CLoad
pipe-1-1.546, 1, 8.43086e-005
*CLoad
pipe-1-1.546, 2, 0.000184401
*CLoad
pipe-1-1.546, 3, -1.30782e-015
*CLoad
pipe-1-1.547, 1, 0.000132175
*CLoad
pipe-1-1.547, 2, 0.000152667
*CLoad
pipe-1-1.547, 3, -2.57281e-016
*CLoad
pipe-1-1.548, 1, 0.000170892
*CLoad
pipe-1-1.548, 2, 0.000109927
*CLoad
pipe-1-1.548, 3, 6.4096e-016
*CLoad
pipe-1-1.549, 1, 0.000194506
*CLoad
pipe-1-1.549, 2, 5.70273e-005
*CLoad
pipe-1-1.549, 3, 6.47063e-015
*CLoad
pipe-1-1.550, 1, 0.000202019
*CLoad
pipe-1-1.550, 2, -3.85317e-009
*CLoad
pipe-1-1.550, 3, -4.00468e-012
*CLoad
pipe-1-1.551, 1, 0.00019446
*CLoad
pipe-1-1.551, 2, -5.70094e-005
*CLoad
pipe-1-1.551, 3, -1.60072e-012
*CLoad
pipe-1-1.552, 1, 0.000170938
*CLoad
pipe-1-1.552, 2, -0.00010995
*CLoad
pipe-1-1.552, 3, 3.10061e-012
*CLoad
pipe-1-1.553, 1, 0.000132161
*CLoad
pipe-1-1.553, 2, -0.000152659
*CLoad
pipe-1-1.553, 3, 5.55661e-013
*CLoad
pipe-1-1.554, 1, 8.43082e-005
*CLoad
pipe-1-1.554, 2, -0.0001844
*CLoad
pipe-1-1.554, 3, -2.14699e-012
*CLoad
pipe-1-1.555, 1, 2.88242e-005
*CLoad
pipe-1-1.555, 2, -0.00020049
*CLoad
pipe-1-1.555, 3, 4.58411e-012
*CLoad
pipe-1-1.556, 1, -2.88246e-005
*CLoad
pipe-1-1.556, 2, -0.00020049
*CLoad
pipe-1-1.556, 3, -4.64477e-012
*CLoad
pipe-1-1.557, 1, -8.43076e-005
*CLoad
pipe-1-1.557, 2, -0.0001844
*CLoad
pipe-1-1.557, 3, 2.31672e-012
*CLoad
pipe-1-1.558, 1, -0.000132161
*CLoad
pipe-1-1.558, 2, -0.000152659
*CLoad
pipe-1-1.558, 3, -7.70042e-014
*CLoad
pipe-1-1.559, 1, -0.000170938
*CLoad
pipe-1-1.559, 2, -0.000109951
*CLoad
pipe-1-1.559, 3, -3.08123e-012
*CLoad
pipe-1-1.560, 1, -0.00019446
*CLoad
pipe-1-1.560, 2, -5.70097e-005
*CLoad
pipe-1-1.560, 3, 1.45683e-012
*CLoad
pipe-1-1.561, 1, -0.000202019
*CLoad
pipe-1-1.561, 2, -3.78943e-009
*CLoad
pipe-1-1.561, 3, 1.0648e-011
*CLoad
pipe-1-1.562, 1, -0.000194506
*CLoad
pipe-1-1.562, 2, 5.70275e-005
*CLoad
pipe-1-1.562, 3, -2.73916e-014
*CLoad
pipe-1-1.563, 1, -0.000170892
*CLoad
pipe-1-1.563, 2, 0.000109928
*CLoad
pipe-1-1.563, 3, -2.87132e-016
*CLoad
pipe-1-1.564, 1, -0.000132176
*CLoad
pipe-1-1.564, 2, 0.000152666
*CLoad
pipe-1-1.564, 3, -7.25582e-016
*CLoad
pipe-1-1.565, 1, -8.4308e-005
*CLoad
pipe-1-1.565, 2, 0.000184401
*CLoad
pipe-1-1.565, 3, 5.65323e-016
*CLoad
pipe-1-1.566, 1, -2.88246e-005
*CLoad
pipe-1-1.566, 2, 0.00020049
*CLoad
pipe-1-1.566, 3, 3.2807e-016
*CLoad
pipe-1-1.567, 1, 2.88243e-005
*CLoad
pipe-1-1.567, 2, 0.00020049
*CLoad
pipe-1-1.567, 3, 1.33905e-015
*CLoad
pipe-1-1.568, 1, 8.43086e-005
*CLoad
pipe-1-1.568, 2, 0.000184401
*CLoad
pipe-1-1.568, 3, -7.08066e-016
*CLoad
pipe-1-1.569, 1, 0.000132175
*CLoad
pipe-1-1.569, 2, 0.000152667
*CLoad
pipe-1-1.569, 3, -4.07872e-016
*CLoad
pipe-1-1.570, 1, 0.000170892
*CLoad
pipe-1-1.570, 2, 0.000109927
*CLoad
pipe-1-1.570, 3, 6.3578e-016
*CLoad
pipe-1-1.571, 1, 0.000194506
*CLoad
pipe-1-1.571, 2, 5.70273e-005
*CLoad
pipe-1-1.571, 3, 7.12986e-015
*CLoad
pipe-1-1.572, 1, 0.000202019
*CLoad
pipe-1-1.572, 2, -3.85317e-009
*CLoad
pipe-1-1.572, 3, -4.00219e-012
*CLoad
pipe-1-1.573, 1, 0.00019446
*CLoad
pipe-1-1.573, 2, -5.70095e-005
*CLoad
pipe-1-1.573, 3, 4.85281e-012
*CLoad
pipe-1-1.574, 1, 0.000170938
*CLoad
pipe-1-1.574, 2, -0.00010995
*CLoad
pipe-1-1.574, 3, -9.31002e-012
*CLoad
pipe-1-1.575, 1, 0.000132161
*CLoad
pipe-1-1.575, 2, -0.000152659
*CLoad
pipe-1-1.575, 3, -1.70331e-012
*CLoad
pipe-1-1.576, 1, 8.43082e-005
*CLoad
pipe-1-1.576, 2, -0.0001844
*CLoad
pipe-1-1.576, 3, 6.41371e-012
*CLoad
pipe-1-1.577, 1, 2.88242e-005
*CLoad
pipe-1-1.577, 2, -0.00020049
*CLoad
pipe-1-1.577, 3, -1.37056e-011
*CLoad
pipe-1-1.578, 1, -2.88246e-005
*CLoad
pipe-1-1.578, 2, -0.00020049
*CLoad
pipe-1-1.578, 3, 1.38847e-011
*CLoad
pipe-1-1.579, 1, -8.43076e-005
*CLoad
pipe-1-1.579, 2, -0.0001844
*CLoad
pipe-1-1.579, 3, -6.92503e-012
*CLoad
pipe-1-1.580, 1, -0.000132162
*CLoad
pipe-1-1.580, 2, -0.000152659
*CLoad
pipe-1-1.580, 3, 2.68223e-013
*CLoad
pipe-1-1.581, 1, -0.000170938
*CLoad
pipe-1-1.581, 2, -0.000109951
*CLoad
pipe-1-1.581, 3, 9.25195e-012
*CLoad
pipe-1-1.582, 1, -0.00019446
*CLoad
pipe-1-1.582, 2, -5.70097e-005
*CLoad
pipe-1-1.582, 3, -4.35712e-012
*CLoad
pipe-1-1.583, 1, -0.000202019
*CLoad
pipe-1-1.583, 2, -3.79501e-009
*CLoad
pipe-1-1.583, 3, -5.44163e-012
*CLoad
pipe-1-1.584, 1, -0.000194506
*CLoad
pipe-1-1.584, 2, 5.70276e-005
*CLoad
pipe-1-1.584, 3, -2.79205e-014
*CLoad
pipe-1-1.585, 1, -0.000170892
*CLoad
pipe-1-1.585, 2, 0.000109928
*CLoad
pipe-1-1.585, 3, -2.84049e-016
*CLoad
pipe-1-1.586, 1, -0.000132176
*CLoad
pipe-1-1.586, 2, 0.000152667
*CLoad
pipe-1-1.586, 3, 3.76149e-016
*CLoad
pipe-1-1.587, 1, -8.4308e-005
*CLoad
pipe-1-1.587, 2, 0.000184401
*CLoad
pipe-1-1.587, 3, 4.24623e-016
*CLoad
pipe-1-1.588, 1, -2.88246e-005
*CLoad
pipe-1-1.588, 2, 0.00020049
*CLoad
pipe-1-1.588, 3, 1.64867e-016
*CLoad
pipe-1-1.589, 1, 2.88243e-005
*CLoad
pipe-1-1.589, 2, 0.00020049
*CLoad
pipe-1-1.589, 3, 1.37056e-015
*CLoad
pipe-1-1.590, 1, 8.43086e-005
*CLoad
pipe-1-1.590, 2, 0.000184401
*CLoad
pipe-1-1.590, 3, -6.22155e-016
*CLoad
pipe-1-1.591, 1, 0.000132176
*CLoad
pipe-1-1.591, 2, 0.000152667
*CLoad
pipe-1-1.591, 3, -3.89086e-016
*CLoad
pipe-1-1.592, 1, 0.000170892
*CLoad
pipe-1-1.592, 2, 0.000109927
*CLoad
pipe-1-1.592, 3, 6.34436e-016
*CLoad
pipe-1-1.593, 1, 0.000194506
*CLoad
pipe-1-1.593, 2, 5.70274e-005
*CLoad
pipe-1-1.593, 3, 8.1389e-015
*CLoad
pipe-1-1.594, 1, 0.000202019
*CLoad
pipe-1-1.594, 2, -3.85234e-009
*CLoad
pipe-1-1.594, 3, 1.21171e-011
*CLoad
pipe-1-1.595, 1, 0.00019446
*CLoad
pipe-1-1.595, 2, -5.70095e-005
*CLoad
pipe-1-1.595, 3, -8.1481e-012
*CLoad
pipe-1-1.596, 1, 0.000170938
*CLoad
pipe-1-1.596, 2, -0.00010995
*CLoad
pipe-1-1.596, 3, 1.55436e-011
*CLoad
pipe-1-1.597, 1, 0.000132161
*CLoad
pipe-1-1.597, 2, -0.000152659
*CLoad
pipe-1-1.597, 3, 2.96146e-012
*CLoad
pipe-1-1.598, 1, 8.43082e-005
*CLoad
pipe-1-1.598, 2, -0.000184399
*CLoad
pipe-1-1.598, 3, -1.05774e-011
*CLoad
pipe-1-1.599, 1, 2.88242e-005
*CLoad
pipe-1-1.599, 2, -0.00020049
*CLoad
pipe-1-1.599, 3, 2.26637e-011
*CLoad
pipe-1-1.600, 1, -2.88245e-005
*CLoad
pipe-1-1.600, 2, -0.00020049
*CLoad
pipe-1-1.600, 3, -2.29639e-011
*CLoad
pipe-1-1.601, 1, -8.43075e-005
*CLoad
pipe-1-1.601, 2, -0.0001844
*CLoad
pipe-1-1.601, 3, 1.14334e-011
*CLoad
pipe-1-1.602, 1, -0.000132162
*CLoad
pipe-1-1.602, 2, -0.000152659
*CLoad
pipe-1-1.602, 3, -5.74637e-013
*CLoad
pipe-1-1.603, 1, -0.000170937
*CLoad
pipe-1-1.603, 2, -0.000109951
*CLoad
pipe-1-1.603, 3, -1.5448e-011
*CLoad
pipe-1-1.604, 1, -0.00019446
*CLoad
pipe-1-1.604, 2, -5.70098e-005
*CLoad
pipe-1-1.604, 3, 7.37201e-012
*CLoad
pipe-1-1.605, 1, -0.000202019
*CLoad
pipe-1-1.605, 2, -3.79939e-009
*CLoad
pipe-1-1.605, 3, 2.67561e-011
*CLoad
pipe-1-1.606, 1, -0.000194506
*CLoad
pipe-1-1.606, 2, 5.70276e-005
*CLoad
pipe-1-1.606, 3, -2.45638e-014
*CLoad
pipe-1-1.607, 1, -0.000170892
*CLoad
pipe-1-1.607, 2, 0.000109928
*CLoad
pipe-1-1.607, 3, -2.87636e-016
*CLoad
pipe-1-1.608, 1, -0.000132176
*CLoad
pipe-1-1.608, 2, 0.000152667
*CLoad
pipe-1-1.608, 3, 6.1491e-016
*CLoad
pipe-1-1.609, 1, -8.4308e-005
*CLoad
pipe-1-1.609, 2, 0.000184401
*CLoad
pipe-1-1.609, 3, 1.282e-016
*CLoad
pipe-1-1.610, 1, -2.88246e-005
*CLoad
pipe-1-1.610, 2, 0.00020049
*CLoad
pipe-1-1.610, 3, -2.02937e-016
*CLoad
pipe-1-1.611, 1, 2.88242e-005
*CLoad
pipe-1-1.611, 2, 0.00020049
*CLoad
pipe-1-1.611, 3, 1.29775e-015
*CLoad
pipe-1-1.612, 1, 8.43086e-005
*CLoad
pipe-1-1.612, 2, 0.000184401
*CLoad
pipe-1-1.612, 3, 3.78765e-016
*CLoad
pipe-1-1.613, 1, 0.000132176
*CLoad
pipe-1-1.613, 2, 0.000152667
*CLoad
pipe-1-1.613, 3, -3.69612e-016
*CLoad
pipe-1-1.614, 1, 0.000170892
*CLoad
pipe-1-1.614, 2, 0.000109927
*CLoad
pipe-1-1.614, 3, 6.35998e-016
*CLoad
pipe-1-1.615, 1, 0.000194506
*CLoad
pipe-1-1.615, 2, 5.70274e-005
*CLoad
pipe-1-1.615, 3, 9.07637e-015
*CLoad
pipe-1-1.616, 1, 0.000202019
*CLoad
pipe-1-1.616, 2, -3.85029e-009
*CLoad
pipe-1-1.616, 3, -2.0114e-011
*CLoad
pipe-1-1.617, 1, 0.00019446
*CLoad
pipe-1-1.617, 2, -5.70096e-005
*CLoad
pipe-1-1.617, 3, 1.15926e-011
*CLoad
pipe-1-1.618, 1, 0.000170938
*CLoad
pipe-1-1.618, 2, -0.00010995
*CLoad
pipe-1-1.618, 3, -2.1818e-011
*CLoad
pipe-1-1.619, 1, 0.000132162
*CLoad
pipe-1-1.619, 2, -0.00015266
*CLoad
pipe-1-1.619, 3, -4.4022e-012
*CLoad
pipe-1-1.620, 1, 8.43081e-005
*CLoad
pipe-1-1.620, 2, -0.000184399
*CLoad
pipe-1-1.620, 3, 1.44933e-011
*CLoad
pipe-1-1.621, 1, 2.88241e-005
*CLoad
pipe-1-1.621, 2, -0.00020049
*CLoad
pipe-1-1.621, 3, -3.12746e-011
*CLoad
pipe-1-1.622, 1, -2.88244e-005
*CLoad
pipe-1-1.622, 2, -0.00020049
*CLoad
pipe-1-1.622, 3, 3.16946e-011
*CLoad
pipe-1-1.623, 1, -8.43075e-005
*CLoad
pipe-1-1.623, 2, -0.0001844
*CLoad
pipe-1-1.623, 3, -1.57013e-011
*CLoad
pipe-1-1.624, 1, -0.000132162
*CLoad
pipe-1-1.624, 2, -0.000152659
*CLoad
pipe-1-1.624, 3, 1.06984e-012
*CLoad
pipe-1-1.625, 1, -0.000170937
*CLoad
pipe-1-1.625, 2, -0.00010995
*CLoad
pipe-1-1.625, 3, 2.16862e-011
*CLoad
pipe-1-1.626, 1, -0.00019446
*CLoad
pipe-1-1.626, 2, -5.70098e-005
*CLoad
pipe-1-1.626, 3, -1.04624e-011
*CLoad
pipe-1-1.627, 1, -0.000202019
*CLoad
pipe-1-1.627, 2, -3.80155e-009
*CLoad
pipe-1-1.627, 3, -2.15336e-011
*CLoad
pipe-1-1.628, 1, -0.000194506
*CLoad
pipe-1-1.628, 2, 5.70277e-005
*CLoad
pipe-1-1.628, 3, -2.82469e-014
*CLoad
pipe-1-1.629, 1, -0.000170892
*CLoad
pipe-1-1.629, 2, 0.000109927
*CLoad
pipe-1-1.629, 3, -3.0114e-016
*CLoad
pipe-1-1.630, 1, -0.000132176
*CLoad
pipe-1-1.630, 2, 0.000152667
*CLoad
pipe-1-1.630, 3, 6.17904e-016
*CLoad
pipe-1-1.631, 1, -8.43079e-005
*CLoad
pipe-1-1.631, 2, 0.000184401
*CLoad
pipe-1-1.631, 3, 7.91508e-016
*CLoad
pipe-1-1.632, 1, -2.88245e-005
*CLoad
pipe-1-1.632, 2, 0.00020049
*CLoad
pipe-1-1.632, 3, 1.93194e-016
*CLoad
pipe-1-1.633, 1, 2.88242e-005
*CLoad
pipe-1-1.633, 2, 0.00020049
*CLoad
pipe-1-1.633, 3, 1.25997e-015
*CLoad
pipe-1-1.634, 1, 8.43085e-005
*CLoad
pipe-1-1.634, 2, 0.0001844
*CLoad
pipe-1-1.634, 3, -6.82295e-016
*CLoad
pipe-1-1.635, 1, 0.000132176
*CLoad
pipe-1-1.635, 2, 0.000152667
*CLoad
pipe-1-1.635, 3, -3.73021e-016
*CLoad
pipe-1-1.636, 1, 0.000170892
*CLoad
pipe-1-1.636, 2, 0.000109927
*CLoad
pipe-1-1.636, 3, 6.42451e-016
*CLoad
pipe-1-1.637, 1, 0.000194506
*CLoad
pipe-1-1.637, 2, 5.70274e-005
*CLoad
pipe-1-1.637, 3, 1.00283e-014
*CLoad
pipe-1-1.638, 1, 0.000202019
*CLoad
pipe-1-1.638, 2, -3.84603e-009
*CLoad
pipe-1-1.638, 3, 2.82539e-011
*CLoad
pipe-1-1.639, 1, 0.00019446
*CLoad
pipe-1-1.639, 2, -5.70097e-005
*CLoad
pipe-1-1.639, 3, -1.51528e-011
*CLoad
pipe-1-1.640, 1, 0.000170937
*CLoad
pipe-1-1.640, 2, -0.00010995
*CLoad
pipe-1-1.640, 3, 2.81454e-011
*CLoad
pipe-1-1.641, 1, 0.000132162
*CLoad
pipe-1-1.641, 2, -0.00015266
*CLoad
pipe-1-1.641, 3, 6.09778e-012
*CLoad
pipe-1-1.642, 1, 8.43081e-005
*CLoad
pipe-1-1.642, 2, -0.000184399
*CLoad
pipe-1-1.642, 3, -1.78467e-011
*CLoad
pipe-1-1.643, 1, 2.88239e-005
*CLoad
pipe-1-1.643, 2, -0.00020049
*CLoad
pipe-1-1.643, 3, 3.91852e-011
*CLoad
pipe-1-1.644, 1, -2.88243e-005
*CLoad
pipe-1-1.644, 2, -0.00020049
*CLoad
pipe-1-1.644, 3, -3.97274e-011
*CLoad
pipe-1-1.645, 1, -8.43074e-005
*CLoad
pipe-1-1.645, 2, -0.000184399
*CLoad
pipe-1-1.645, 3, 1.9415e-011
*CLoad
pipe-1-1.646, 1, -0.000132162
*CLoad
pipe-1-1.646, 2, -0.00015266
*CLoad
pipe-1-1.646, 3, -1.82994e-012
*CLoad
pipe-1-1.647, 1, -0.000170937
*CLoad
pipe-1-1.647, 2, -0.00010995
*CLoad
pipe-1-1.647, 3, -2.79797e-011
*CLoad
pipe-1-1.648, 1, -0.00019446
*CLoad
pipe-1-1.648, 2, -5.701e-005
*CLoad
pipe-1-1.648, 3, 1.37574e-011
*CLoad
pipe-1-1.649, 1, -0.00020202
*CLoad
pipe-1-1.649, 2, -3.79918e-009
*CLoad
pipe-1-1.649, 3, 4.29035e-011
*CLoad
pipe-1-1.650, 1, -0.000194506
*CLoad
pipe-1-1.650, 2, 5.70278e-005
*CLoad
pipe-1-1.650, 3, -2.00732e-014
*CLoad
pipe-1-1.651, 1, -0.000170891
*CLoad
pipe-1-1.651, 2, 0.000109927
*CLoad
pipe-1-1.651, 3, -3.14617e-016
*CLoad
pipe-1-1.652, 1, -0.000132177
*CLoad
pipe-1-1.652, 2, 0.000152667
*CLoad
pipe-1-1.652, 3, 6.00502e-016
*CLoad
pipe-1-1.653, 1, -8.43079e-005
*CLoad
pipe-1-1.653, 2, 0.000184401
*CLoad
pipe-1-1.653, 3, 7.83224e-016
*CLoad
pipe-1-1.654, 1, -2.88243e-005
*CLoad
pipe-1-1.654, 2, 0.00020049
*CLoad
pipe-1-1.654, 3, 5.34291e-016
*CLoad
pipe-1-1.655, 1, 2.8824e-005
*CLoad
pipe-1-1.655, 2, 0.00020049
*CLoad
pipe-1-1.655, 3, 1.36144e-015
*CLoad
pipe-1-1.656, 1, 8.43085e-005
*CLoad
pipe-1-1.656, 2, 0.0001844
*CLoad
pipe-1-1.656, 3, -6.73333e-016
*CLoad
pipe-1-1.657, 1, 0.000132176
*CLoad
pipe-1-1.657, 2, 0.000152668
*CLoad
pipe-1-1.657, 3, -3.89496e-016
*CLoad
pipe-1-1.658, 1, 0.000170892
*CLoad
pipe-1-1.658, 2, 0.000109927
*CLoad
pipe-1-1.658, 3, 6.35067e-016
*CLoad
pipe-1-1.659, 1, 0.000194506
*CLoad
pipe-1-1.659, 2, 5.70276e-005
*CLoad
pipe-1-1.659, 3, 1.07097e-014
*CLoad
pipe-1-1.660, 1, 0.000202019
*CLoad
pipe-1-1.660, 2, -3.83724e-009
*CLoad
pipe-1-1.660, 3, -3.62619e-011
*CLoad
pipe-1-1.661, 1, 0.000194461
*CLoad
pipe-1-1.661, 2, -5.70101e-005
*CLoad
pipe-1-1.661, 3, 1.89117e-011
*CLoad
pipe-1-1.662, 1, 0.000170937
*CLoad
pipe-1-1.662, 2, -0.000109949
*CLoad
pipe-1-1.662, 3, -3.45306e-011
*CLoad
pipe-1-1.663, 1, 0.000132162
*CLoad
pipe-1-1.663, 2, -0.000152661
*CLoad
pipe-1-1.663, 3, -8.12315e-012
*CLoad
pipe-1-1.664, 1, 8.43082e-005
*CLoad
pipe-1-1.664, 2, -0.000184399
*CLoad
pipe-1-1.664, 3, 1.99923e-011
*CLoad
pipe-1-1.665, 1, 2.88236e-005
*CLoad
pipe-1-1.665, 2, -0.000200491
*CLoad
pipe-1-1.665, 3, -4.57147e-011
*CLoad
pipe-1-1.666, 1, -2.8824e-005
*CLoad
pipe-1-1.666, 2, -0.00020049
*CLoad
pipe-1-1.666, 3, 4.63772e-011
*CLoad
pipe-1-1.667, 1, -8.43076e-005
*CLoad
pipe-1-1.667, 2, -0.000184399
*CLoad
pipe-1-1.667, 3, -2.19338e-011
*CLoad
pipe-1-1.668, 1, -0.000132163
*CLoad
pipe-1-1.668, 2, -0.00015266
*CLoad
pipe-1-1.668, 3, 2.93135e-012
*CLoad
pipe-1-1.669, 1, -0.000170937
*CLoad
pipe-1-1.669, 2, -0.00010995
*CLoad
pipe-1-1.669, 3, 3.43334e-011
*CLoad
pipe-1-1.670, 1, -0.000194461
*CLoad
pipe-1-1.670, 2, -5.70103e-005
*CLoad
pipe-1-1.670, 3, -1.71708e-011
*CLoad
pipe-1-1.671, 1, -0.000202018
*CLoad
pipe-1-1.671, 2, -3.79386e-009
*CLoad
pipe-1-1.671, 3, -3.77122e-011
*CLoad
pipe-1-1.672, 1, -0.000194506
*CLoad
pipe-1-1.672, 2, 5.70281e-005
*CLoad
pipe-1-1.672, 3, -2.05523e-014
*CLoad
pipe-1-1.673, 1, -0.000170891
*CLoad
pipe-1-1.673, 2, 0.000109927
*CLoad
pipe-1-1.673, 3, -3.03438e-016
*CLoad
pipe-1-1.674, 1, -0.000132177
*CLoad
pipe-1-1.674, 2, 0.000152668
*CLoad
pipe-1-1.674, 3, 6.33571e-016
*CLoad
pipe-1-1.675, 1, -8.4308e-005
*CLoad
pipe-1-1.675, 2, 0.0001844
*CLoad
pipe-1-1.675, 3, 7.91116e-016
*CLoad
pipe-1-1.676, 1, -2.8824e-005
*CLoad
pipe-1-1.676, 2, 0.00020049
*CLoad
pipe-1-1.676, 3, 2.74648e-016
*CLoad
pipe-1-1.677, 1, 2.88237e-005
*CLoad
pipe-1-1.677, 2, 0.00020049
*CLoad
pipe-1-1.677, 3, 1.49962e-015
*CLoad
pipe-1-1.678, 1, 8.43086e-005
*CLoad
pipe-1-1.678, 2, 0.0001844
*CLoad
pipe-1-1.678, 3, -6.73667e-016
*CLoad
pipe-1-1.679, 1, 0.000132177
*CLoad
pipe-1-1.679, 2, 0.000152668
*CLoad
pipe-1-1.679, 3, -3.90402e-016
*CLoad
pipe-1-1.680, 1, 0.000170892
*CLoad
pipe-1-1.680, 2, 0.000109926
*CLoad
pipe-1-1.680, 3, 6.33982e-016
*CLoad
pipe-1-1.681, 1, 0.000194506
*CLoad
pipe-1-1.681, 2, 5.70279e-005
*CLoad
pipe-1-1.681, 3, 1.19292e-014
*CLoad
pipe-1-1.682, 1, 0.000202018
*CLoad
pipe-1-1.682, 2, -3.82551e-009
*CLoad
pipe-1-1.682, 3, 4.44886e-011
*CLoad
pipe-1-1.683, 1, 0.00019455
*CLoad
pipe-1-1.683, 2, -5.70374e-005
*CLoad
pipe-1-1.683, 3, -3.50603e-011
*CLoad
pipe-1-1.684, 1, 0.00017101
*CLoad
pipe-1-1.684, 2, -0.000109995
*CLoad
pipe-1-1.684, 3, 5.72662e-011
*CLoad
pipe-1-1.685, 1, 0.000132231
*CLoad
pipe-1-1.685, 2, -0.000152737
*CLoad
pipe-1-1.685, 3, 3.05497e-012
*CLoad
pipe-1-1.686, 1, 8.43463e-005
*CLoad
pipe-1-1.686, 2, -0.000184484
*CLoad
pipe-1-1.686, 3, -1.76463e-011
*CLoad
pipe-1-1.687, 1, 2.88373e-005
*CLoad
pipe-1-1.687, 2, -0.000200584
*CLoad
pipe-1-1.687, 3, 4.74177e-011
*CLoad
pipe-1-1.688, 1, -2.88376e-005
*CLoad
pipe-1-1.688, 2, -0.000200584
*CLoad
pipe-1-1.688, 3, -4.82512e-011
*CLoad
pipe-1-1.689, 1, -8.43456e-005
*CLoad
pipe-1-1.689, 2, -0.000184484
*CLoad
pipe-1-1.689, 3, 2.06281e-011
*CLoad
pipe-1-1.690, 1, -0.000132231
*CLoad
pipe-1-1.690, 2, -0.000152737
*CLoad
pipe-1-1.690, 3, 2.11851e-012
*CLoad
pipe-1-1.691, 1, -0.00017101
*CLoad
pipe-1-1.691, 2, -0.000109996
*CLoad
pipe-1-1.691, 3, -5.71325e-011
*CLoad
pipe-1-1.692, 1, -0.00019455
*CLoad
pipe-1-1.692, 2, -5.70376e-005
*CLoad
pipe-1-1.692, 3, 3.32795e-011
*CLoad
pipe-1-1.693, 1, -0.000202118
*CLoad
pipe-1-1.693, 2, -3.7672e-009
*CLoad
pipe-1-1.693, 3, 5.58732e-011
*CLoad
pipe-1-1.694, 1, -0.000194595
*CLoad
pipe-1-1.694, 2, 5.70553e-005
*CLoad
pipe-1-1.694, 3, -2.85709e-014
*CLoad
pipe-1-1.695, 1, -0.000170965
*CLoad
pipe-1-1.695, 2, 0.000109973
*CLoad
pipe-1-1.695, 3, -2.87649e-016
*CLoad
pipe-1-1.696, 1, -0.000132245
*CLoad
pipe-1-1.696, 2, 0.000152744
*CLoad
pipe-1-1.696, 3, 6.15896e-016
*CLoad
pipe-1-1.697, 1, -8.43461e-005
*CLoad
pipe-1-1.697, 2, 0.000184485
*CLoad
pipe-1-1.697, 3, 7.92552e-016
*CLoad
pipe-1-1.698, 1, -2.88377e-005
*CLoad
pipe-1-1.698, 2, 0.000200584
*CLoad
pipe-1-1.698, 3, 2.63459e-016
*CLoad
pipe-1-1.699, 1, 2.88373e-005
*CLoad
pipe-1-1.699, 2, 0.000200584
*CLoad
pipe-1-1.699, 3, 1.36198e-015
*CLoad
pipe-1-1.700, 1, 8.43467e-005
*CLoad
pipe-1-1.700, 2, 0.000184485
*CLoad
pipe-1-1.700, 3, -6.75134e-016
*CLoad
pipe-1-1.701, 1, 0.000132245
*CLoad
pipe-1-1.701, 2, 0.000152745
*CLoad
pipe-1-1.701, 3, -3.90324e-016
*CLoad
pipe-1-1.702, 1, 0.000170965
*CLoad
pipe-1-1.702, 2, 0.000109972
*CLoad
pipe-1-1.702, 3, 6.36767e-016
*CLoad
pipe-1-1.703, 1, 0.000194595
*CLoad
pipe-1-1.703, 2, 5.7055e-005
*CLoad
pipe-1-1.703, 3, 1.26438e-014
*CLoad
pipe-1-1.704, 1, 0.000202118
*CLoad
pipe-1-1.704, 2, -3.79224e-009
*CLoad
pipe-1-1.704, 3, -4.92567e-011
*CLoad
pipe-1-1.705, 1, 0.00019455
*CLoad
pipe-1-1.705, 2, -5.70373e-005
*CLoad
pipe-1-1.705, 3, 3.50841e-011
*CLoad
pipe-1-1.706, 1, 0.00017101
*CLoad
pipe-1-1.706, 2, -0.000109995
*CLoad
pipe-1-1.706, 3, -5.72664e-011
*CLoad
pipe-1-1.707, 1, 0.000132231
*CLoad
pipe-1-1.707, 2, -0.000152737
*CLoad
pipe-1-1.707, 3, -3.05478e-012
*CLoad
pipe-1-1.708, 1, 8.43463e-005
*CLoad
pipe-1-1.708, 2, -0.000184484
*CLoad
pipe-1-1.708, 3, 1.76467e-011
*CLoad
pipe-1-1.709, 1, 2.88372e-005
*CLoad
pipe-1-1.709, 2, -0.000200584
*CLoad
pipe-1-1.709, 3, -4.74185e-011
*CLoad
pipe-1-1.710, 1, -2.88376e-005
*CLoad
pipe-1-1.710, 2, -0.000200584
*CLoad
pipe-1-1.710, 3, 4.82506e-011
*CLoad
pipe-1-1.711, 1, -8.43456e-005
*CLoad
pipe-1-1.711, 2, -0.000184484
*CLoad
pipe-1-1.711, 3, -2.06288e-011
*CLoad
pipe-1-1.712, 1, -0.000132231
*CLoad
pipe-1-1.712, 2, -0.000152737
*CLoad
pipe-1-1.712, 3, -2.11897e-012
*CLoad
pipe-1-1.713, 1, -0.00017101
*CLoad
pipe-1-1.713, 2, -0.000109996
*CLoad
pipe-1-1.713, 3, 5.71327e-011
*CLoad
pipe-1-1.714, 1, -0.00019455
*CLoad
pipe-1-1.714, 2, -5.70376e-005
*CLoad
pipe-1-1.714, 3, -3.32494e-011
*CLoad
pipe-1-1.715, 1, -0.000202118
*CLoad
pipe-1-1.715, 2, -3.77359e-009
*CLoad
pipe-1-1.715, 3, -4.25095e-011
*CLoad
pipe-1-1.716, 1, -0.000194595
*CLoad
pipe-1-1.716, 2, 5.70553e-005
*CLoad
pipe-1-1.716, 3, -2.80286e-014
*CLoad
pipe-1-1.717, 1, -0.000170965
*CLoad
pipe-1-1.717, 2, 0.000109973
*CLoad
pipe-1-1.717, 3, -2.89221e-016
*CLoad
pipe-1-1.718, 1, -0.000132245
*CLoad
pipe-1-1.718, 2, 0.000152744
*CLoad
pipe-1-1.718, 3, 6.20856e-016
*CLoad
pipe-1-1.719, 1, -8.43461e-005
*CLoad
pipe-1-1.719, 2, 0.000184485
*CLoad
pipe-1-1.719, 3, 7.94779e-016
*CLoad
pipe-1-1.720, 1, -2.88377e-005
*CLoad
pipe-1-1.720, 2, 0.000200584
*CLoad
pipe-1-1.720, 3, 2.48367e-016
*CLoad
pipe-1-1.721, 1, 2.88373e-005
*CLoad
pipe-1-1.721, 2, 0.000200584
*CLoad
pipe-1-1.721, 3, 1.36214e-015
*CLoad
pipe-1-1.722, 1, 8.43467e-005
*CLoad
pipe-1-1.722, 2, 0.000184485
*CLoad
pipe-1-1.722, 3, -6.76744e-016
*CLoad
pipe-1-1.723, 1, 0.000132245
*CLoad
pipe-1-1.723, 2, 0.000152745
*CLoad
pipe-1-1.723, 3, -3.93338e-016
*CLoad
pipe-1-1.724, 1, 0.000170965
*CLoad
pipe-1-1.724, 2, 0.000109972
*CLoad
pipe-1-1.724, 3, 6.39949e-016
*CLoad
pipe-1-1.725, 1, 0.000194595
*CLoad
pipe-1-1.725, 2, 5.7055e-005
*CLoad
pipe-1-1.725, 3, 1.35561e-014
*CLoad
pipe-1-1.726, 1, 0.000202118
*CLoad
pipe-1-1.726, 2, -3.79224e-009
*CLoad
pipe-1-1.726, 3, 4.93569e-011
*CLoad
pipe-1-1.727, 1, 0.000194461
*CLoad
pipe-1-1.727, 2, -5.70101e-005
*CLoad
pipe-1-1.727, 3, -1.88873e-011
*CLoad
pipe-1-1.728, 1, 0.000170937
*CLoad
pipe-1-1.728, 2, -0.000109949
*CLoad
pipe-1-1.728, 3, 3.45302e-011
*CLoad
pipe-1-1.729, 1, 0.000132162
*CLoad
pipe-1-1.729, 2, -0.000152661
*CLoad
pipe-1-1.729, 3, 8.12325e-012
*CLoad
pipe-1-1.730, 1, 8.43082e-005
*CLoad
pipe-1-1.730, 2, -0.000184399
*CLoad
pipe-1-1.730, 3, -1.99919e-011
*CLoad
pipe-1-1.731, 1, 2.88236e-005
*CLoad
pipe-1-1.731, 2, -0.000200491
*CLoad
pipe-1-1.731, 3, 4.57136e-011
*CLoad
pipe-1-1.732, 1, -2.8824e-005
*CLoad
pipe-1-1.732, 2, -0.00020049
*CLoad
pipe-1-1.732, 3, -4.63776e-011
*CLoad
pipe-1-1.733, 1, -8.43076e-005
*CLoad
pipe-1-1.733, 2, -0.000184399
*CLoad
pipe-1-1.733, 3, 2.19329e-011
*CLoad
pipe-1-1.734, 1, -0.000132163
*CLoad
pipe-1-1.734, 2, -0.00015266
*CLoad
pipe-1-1.734, 3, -2.93182e-012
*CLoad
pipe-1-1.735, 1, -0.000170937
*CLoad
pipe-1-1.735, 2, -0.00010995
*CLoad
pipe-1-1.735, 3, -3.43331e-011
*CLoad
pipe-1-1.736, 1, -0.000194461
*CLoad
pipe-1-1.736, 2, -5.70103e-005
*CLoad
pipe-1-1.736, 3, 1.72007e-011
*CLoad
pipe-1-1.737, 1, -0.000202018
*CLoad
pipe-1-1.737, 2, -3.81308e-009
*CLoad
pipe-1-1.737, 3, 5.10527e-011
*CLoad
pipe-1-1.738, 1, -0.000194506
*CLoad
pipe-1-1.738, 2, 5.70282e-005
*CLoad
pipe-1-1.738, 3, -1.16384e-014
*CLoad
pipe-1-1.739, 1, -0.000170891
*CLoad
pipe-1-1.739, 2, 0.000109927
*CLoad
pipe-1-1.739, 3, -2.86503e-016
*CLoad
pipe-1-1.740, 1, -0.000132177
*CLoad
pipe-1-1.740, 2, 0.000152668
*CLoad
pipe-1-1.740, 3, 6.16975e-016
*CLoad
pipe-1-1.741, 1, -8.4308e-005
*CLoad
pipe-1-1.741, 2, 0.0001844
*CLoad
pipe-1-1.741, 3, 5.34221e-016
*CLoad
pipe-1-1.742, 1, -2.8824e-005
*CLoad
pipe-1-1.742, 2, 0.00020049
*CLoad
pipe-1-1.742, 3, 3.70486e-016
*CLoad
pipe-1-1.743, 1, 2.88237e-005
*CLoad
pipe-1-1.743, 2, 0.00020049
*CLoad
pipe-1-1.743, 3, 1.35183e-015
*CLoad
pipe-1-1.744, 1, 8.43086e-005
*CLoad
pipe-1-1.744, 2, 0.0001844
*CLoad
pipe-1-1.744, 3, -6.74058e-016
*CLoad
pipe-1-1.745, 1, 0.000132177
*CLoad
pipe-1-1.745, 2, 0.000152668
*CLoad
pipe-1-1.745, 3, -3.90727e-016
*CLoad
pipe-1-1.746, 1, 0.000170892
*CLoad
pipe-1-1.746, 2, 0.000109926
*CLoad
pipe-1-1.746, 3, 6.3559e-016
*CLoad
pipe-1-1.747, 1, 0.000194506
*CLoad
pipe-1-1.747, 2, 5.70279e-005
*CLoad
pipe-1-1.747, 3, 1.45393e-014
*CLoad
pipe-1-1.748, 1, 0.000202018
*CLoad
pipe-1-1.748, 2, -3.82551e-009
*CLoad
pipe-1-1.748, 3, -4.4388e-011
*CLoad
pipe-1-1.749, 1, 0.000194537
*CLoad
pipe-1-1.749, 2, -5.70317e-005
*CLoad
pipe-1-1.749, 3, 4.97228e-011
*CLoad
pipe-1-1.750, 1, 0.000171003
*CLoad
pipe-1-1.750, 2, -0.000109993
*CLoad
pipe-1-1.750, 3, -2.53861e-012
*CLoad
pipe-1-1.751, 1, 0.000132211
*CLoad
pipe-1-1.751, 2, -0.000152716
*CLoad
pipe-1-1.751, 3, -3.63037e-011
*CLoad
pipe-1-1.752, 1, 8.43411e-005
*CLoad
pipe-1-1.752, 2, -0.000184471
*CLoad
pipe-1-1.752, 3, 1.69951e-012
*CLoad
pipe-1-1.753, 1, 2.88356e-005
*CLoad
pipe-1-1.753, 2, -0.000200568
*CLoad
pipe-1-1.753, 3, 3.07376e-011
*CLoad
pipe-1-1.754, 1, -2.88358e-005
*CLoad
pipe-1-1.754, 2, -0.000200567
*CLoad
pipe-1-1.754, 3, 2.0562e-012
*CLoad
pipe-1-1.755, 1, -8.43409e-005
*CLoad
pipe-1-1.755, 2, -0.000184472
*CLoad
pipe-1-1.755, 3, -2.07182e-011
*CLoad
pipe-1-1.756, 1, -0.000132209
*CLoad
pipe-1-1.756, 2, -0.000152715
*CLoad
pipe-1-1.756, 3, 2.10764e-011
*CLoad
pipe-1-1.757, 1, -0.000171007
*CLoad
pipe-1-1.757, 2, -0.000109996
*CLoad
pipe-1-1.757, 3, -3.94848e-011
*CLoad
pipe-1-1.758, 1, -0.000194534
*CLoad
pipe-1-1.758, 2, -5.70309e-005
*CLoad
pipe-1-1.758, 3, 2.13666e-011
*CLoad
pipe-1-1.759, 1, -0.000202097
*CLoad
pipe-1-1.759, 2, -3.94809e-009
*CLoad
pipe-1-1.759, 3, 1.64384e-010
*CLoad
pipe-1-1.760, 1, -0.000194581
*CLoad
pipe-1-1.760, 2, 5.7049e-005
*CLoad
pipe-1-1.760, 3, 1.08977e-011
*CLoad
pipe-1-1.761, 1, -0.000170959
*CLoad
pipe-1-1.761, 2, 0.000109972
*CLoad
pipe-1-1.761, 3, -1.4993e-011
*CLoad
pipe-1-1.762, 1, -0.000132225
*CLoad
pipe-1-1.762, 2, 0.000152724
*CLoad
pipe-1-1.762, 3, 1.34952e-012
*CLoad
pipe-1-1.763, 1, -8.43411e-005
*CLoad
pipe-1-1.763, 2, 0.000184473
*CLoad
pipe-1-1.763, 3, -2.0055e-011
*CLoad
pipe-1-1.764, 1, -2.88359e-005
*CLoad
pipe-1-1.764, 2, 0.000200568
*CLoad
pipe-1-1.764, 3, 3.47302e-012
*CLoad
pipe-1-1.765, 1, 2.88356e-005
*CLoad
pipe-1-1.765, 2, 0.000200568
*CLoad
pipe-1-1.765, 3, 2.66796e-011
*CLoad
pipe-1-1.766, 1, 8.43417e-005
*CLoad
pipe-1-1.766, 2, 0.000184473
*CLoad
pipe-1-1.766, 3, -2.95658e-012
*CLoad
pipe-1-1.767, 1, 0.000132225
*CLoad
pipe-1-1.767, 2, 0.000152724
*CLoad
pipe-1-1.767, 3, -1.42119e-011
*CLoad
pipe-1-1.768, 1, 0.00017096
*CLoad
pipe-1-1.768, 2, 0.000109971
*CLoad
pipe-1-1.768, 3, -5.09508e-011
*CLoad
pipe-1-1.769, 1, 0.00019458
*CLoad
pipe-1-1.769, 2, 5.70486e-005
*CLoad
pipe-1-1.769, 3, 3.24375e-011
*CLoad
pipe-1-1.770, 1, 0.000202096
*CLoad
pipe-1-1.770, 2, -3.71499e-009
*CLoad
pipe-1-1.770, 3, 8.02185e-011
*CLoad
pipe-1-1.771, 1, 9.71139e-005
*CLoad
pipe-1-1.771, 2, -2.8471e-005
*CLoad
pipe-1-1.771, 3, 4.57773e-010
*CLoad
pipe-1-1.772, 1, 8.53609e-005
*CLoad
pipe-1-1.772, 2, -5.49061e-005
*CLoad
pipe-1-1.772, 3, -2.93169e-010
*CLoad
pipe-1-1.773, 1, 6.59982e-005
*CLoad
pipe-1-1.773, 2, -7.62344e-005
*CLoad
pipe-1-1.773, 3, -1.87762e-009
*CLoad
pipe-1-1.774, 1, 4.21022e-005
*CLoad
pipe-1-1.774, 2, -9.20861e-005
*CLoad
pipe-1-1.774, 3, 9.65149e-010
*CLoad
pipe-1-1.775, 1, 1.43943e-005
*CLoad
pipe-1-1.775, 2, -0.000100121
*CLoad
pipe-1-1.775, 3, -1.12688e-010
*CLoad
pipe-1-1.776, 1, -1.43946e-005
*CLoad
pipe-1-1.776, 2, -0.000100121
*CLoad
pipe-1-1.776, 3, -4.3735e-010
*CLoad
pipe-1-1.777, 1, -4.21013e-005
*CLoad
pipe-1-1.777, 2, -9.20851e-005
*CLoad
pipe-1-1.777, 3, 8.84185e-011
*CLoad
pipe-1-1.778, 1, -6.59963e-005
*CLoad
pipe-1-1.778, 2, -7.62332e-005
*CLoad
pipe-1-1.778, 3, -1.12464e-009
*CLoad
pipe-1-1.779, 1, -8.53692e-005
*CLoad
pipe-1-1.779, 2, -5.49111e-005
*CLoad
pipe-1-1.779, 3, -3.08686e-011
*CLoad
pipe-1-1.780, 1, -9.71051e-005
*CLoad
pipe-1-1.780, 2, -2.84674e-005
*CLoad
pipe-1-1.780, 3, -1.3972e-010
*CLoad
pipe-1-1.781, 1, -0.000100885
*CLoad
pipe-1-1.781, 2, -2.27017e-009
*CLoad
pipe-1-1.781, 3, 2.91327e-009
*CLoad
pipe-1-1.782, 1, -9.71327e-005
*CLoad
pipe-1-1.782, 2, 2.84785e-005
*CLoad
pipe-1-1.782, 3, -3.91474e-010
*CLoad
pipe-1-1.783, 1, -8.53421e-005
*CLoad
pipe-1-1.783, 2, 5.48971e-005
*CLoad
pipe-1-1.783, 3, -1.87474e-010
*CLoad
pipe-1-1.784, 1, -6.60042e-005
*CLoad
pipe-1-1.784, 2, 7.62375e-005
*CLoad
pipe-1-1.784, 3, -1.62347e-009
*CLoad
pipe-1-1.785, 1, -4.21017e-005
*CLoad
pipe-1-1.785, 2, 9.20862e-005
*CLoad
pipe-1-1.785, 3, 9.39584e-010
*CLoad
pipe-1-1.786, 1, -1.43946e-005
*CLoad
pipe-1-1.786, 2, 0.000100121
*CLoad
pipe-1-1.786, 3, -8.20494e-010
*CLoad
pipe-1-1.787, 1, 1.43944e-005
*CLoad
pipe-1-1.787, 2, 0.000100121
*CLoad
pipe-1-1.787, 3, -4.43119e-010
*CLoad
pipe-1-1.788, 1, 4.21021e-005
*CLoad
pipe-1-1.788, 2, 9.2086e-005
*CLoad
pipe-1-1.788, 3, 4.35858e-010
*CLoad
pipe-1-1.789, 1, 6.60036e-005
*CLoad
pipe-1-1.789, 2, 7.62373e-005
*CLoad
pipe-1-1.789, 3, -1.47021e-009
*CLoad
pipe-1-1.790, 1, 8.53432e-005
*CLoad
pipe-1-1.790, 2, 5.48975e-005
*CLoad
pipe-1-1.790, 3, -3.33687e-010
*CLoad
pipe-1-1.791, 1, 9.7132e-005
*CLoad
pipe-1-1.791, 2, 2.84779e-005
*CLoad
pipe-1-1.791, 3, 4.4816e-010
*CLoad
pipe-1-1.792, 1, 0.000100882
*CLoad
pipe-1-1.792, 2, -1.4256e-009
*CLoad
pipe-1-1.792, 3, 1.42774e-009
** 
** OUTPUT REQUESTS
** 
*Restart, write, frequency=0
** 
** FIELD OUTPUT: F-Output-1
** 
*Output, field
*Node Output
CF, RF, TF, U
*Element Output, directions=YES
LE, NFORC, P, PE, PEEQ, PEMAG, S, SF
*Contact Output
CDISP, CSTRESS
** 
** HISTORY OUTPUT: H-Output-1
** 
*Output, history, variable=PRESELECT
*End Step
** Name: Load-1   Type: Pressure
**Nodal Force
