*Heading
** Job name: pipe_model Model name: StructureModel
** Generated by: Abaqus/CAE 6.10-1
*Preprint, echo=NO, model=NO, history=NO, contact=NO
**
** PARTS
**
*Part, name=pipe-1
*Node
      1, 0.0479746498, -0.0140866274,          0.5
      2, 0.0420626774, -0.0270320401,          0.5
      3, 0.0327430367, -0.0377874784,          0.5
      4, 0.0207707509, -0.0454815999,          0.5
      5, 0.00711574173, -0.0494910739,          0.5
      6, -0.00711574173, -0.0494910739,          0.5
      7, -0.0207707509, -0.0454815999,          0.5
      8, -0.0327430367, -0.0377874784,          0.5
      9, -0.0420626774, -0.0270320401,          0.5
     10, -0.0479746498, -0.0140866274,          0.5
     11, -0.0500000007,           0.,          0.5
     12, -0.0479746498, 0.0140866274,          0.5
     13, -0.0420626774, 0.0270320401,          0.5
     14, -0.0327430367, 0.0377874784,          0.5
     15, -0.0207707509, 0.0454815999,          0.5
     16, -0.00711574173, 0.0494910739,          0.5
     17, 0.00711574173, 0.0494910739,          0.5
     18, 0.0207707509, 0.0454815999,          0.5
     19, 0.0327430367, 0.0377874784,          0.5
     20, 0.0420626774, 0.0270320401,          0.5
** ... 772 like lines cut
*Element, type=S4
  1,  22,   1,  23,  44
  2,   1,   2,  24,  23
  3,   2,   3,  25,  24
  4,   3,   4,  26,  25
  5,   4,   5,  27,  26
  6,   5,   6,  28,  27
  7,   6,   7,  29,  28
  8,   7,   8,  30,  29
  9,   8,   9,  31,  30
 10,   9,  10,  32,  31
 11,  10,  11,  33,  32
 12,  11,  12,  34,  33
 13,  12,  13,  35,  34
 14,  13,  14,  36,  35
 15,  14,  15,  37,  36
 16,  15,  16,  38,  37
 17,  16,  17,  39,  38
 18,  17,  18,  40,  39
 19,  18,  19,  41,  40
 20,  19,  20,  42,  41
** ... 750 like lines cut
*Nset, nset=_PickedSet2, internal, generate
   1,  792,    1
*Elset, elset=_PickedSet2, internal, generate
   1,  770,    1
** Section: shell_prop
*Shell Section, elset=_PickedSet2, material=steel
0.01, 5
*End Part
**  
**
** ASSEMBLY
**
*Assembly, name=Assembly
**  
*Instance, name=pipe-1-1, part=pipe-1
*End Instance
**  
*Nset, nset=_PickedSet16, internal, instance=pipe-1-1, generate
  1,  22,   1
*Elset, elset=_PickedSet16, internal, instance=pipe-1-1, generate
  1,  22,   1
*Nset, nset=_PickedSet18, internal, instance=pipe-1-1
 22,
*Elset, elset=__PickedSurf15_SPOS, internal, instance=pipe-1-1, generate
   1,  770,    1
*Surface, type=ELEMENT, name=_PickedSurf15, internal
__PickedSurf15_SPOS, SPOS
*End Assembly
** 
** MATERIALS
** 
*Material, name=steel
*Elastic
 2.15e+09, 0.28
** ----------------------------------------------------------------
** 
** STEP: static
** 
*Step, name=static
*Static, direct
0.1, 1., 
** 
** BOUNDARY CONDITIONS
** 
** Name: BC-1 Type: Displacement/Rotation
*Boundary
_PickedSet16, 3, 3
_PickedSet16, 4, 4
_PickedSet16, 5, 5
** Name: BC-2 Type: Displacement/Rotation
*Boundary
_PickedSet18, 1, 1
_PickedSet18, 2, 2
_PickedSet18, 6, 6
** 
** LOADS
** 
** Name: Load-1   Type: Pressure
*Dsload
_PickedSurf15, P, -1.
** 
** OUTPUT REQUESTS
** 
*Restart, write, frequency=0
** 
** FIELD OUTPUT: F-Output-1
** 
*Output, field
*Node Output
CF, RF, TF, U
*Element Output, directions=YES
LE, NFORC, P, PE, PEEQ, PEMAG, S, SF
*Contact Output
CDISP, CSTRESS
** 
** HISTORY OUTPUT: H-Output-1
** 
*Output, history, variable=PRESELECT
*End Step
