*Heading
** Job name: pipe_model Model name: StructureModel
** Generated by: Abaqus/CAE 6.10-1
*Preprint, echo=NO, model=NO, history=NO, contact=NO
**
** PARTS
**
*Part, name=pipe-1
*Node
      1, 0.0479746498, -0.0140866274,          0.5
      2, 0.0420626774, -0.0270320401,          0.5
      3, 0.0327430367, -0.0377874784,          0.5
      4, 0.0207707509, -0.0454815999,          0.5
      5, 0.00711574173, -0.0494910739,          0.5
      6, -0.00711574173, -0.0494910739,          0.5
      7, -0.0207707509, -0.0454815999,          0.5
      8, -0.0327430367, -0.0377874784,          0.5
      9, -0.0420626774, -0.0270320401,          0.5
     10, -0.0479746498, -0.0140866274,          0.5
     11, -0.0500000007,           0.,          0.5
     12, -0.0479746498, 0.0140866274,          0.5
     13, -0.0420626774, 0.0270320401,          0.5
     14, -0.0327430367, 0.0377874784,          0.5
     15, -0.0207707509, 0.0454815999,          0.5
     16, -0.00711574173, 0.0494910739,          0.5
     17, 0.00711574173, 0.0494910739,          0.5
     18, 0.0207707509, 0.0454815999,          0.5
     19, 0.0327430367, 0.0377874784,          0.5
     20, 0.0420626774, 0.0270320401,          0.5
** ... 772 like lines cut
*Element, type=S4
  1,  22,   1,  23,  44
  2,   1,   2,  24,  23
  3,   2,   3,  25,  24
  4,   3,   4,  26,  25
  5,   4,   5,  27,  26
  6,   5,   6,  28,  27
  7,   6,   7,  29,  28
  8,   7,   8,  30,  29
  9,   8,   9,  31,  30
 10,   9,  10,  32,  31
 11,  10,  11,  33,  32
 12,  11,  12,  34,  33
 13,  12,  13,  35,  34
 14,  13,  14,  36,  35
 15,  14,  15,  37,  36
 16,  15,  16,  38,  37
 17,  16,  17,  39,  38
 18,  17,  18,  40,  39
 19,  18,  19,  41,  40
 20,  19,  20,  42,  41
** ... 750 like lines cut
*Nset, nset=_PickedSet2, internal, generate
   1,  792,    1
*Elset, elset=_PickedSet2, internal, generate
   1,  770,    1
** Section: shell_prop
*Shell Section, elset=_PickedSet2, material=steel
0.01, 5
*End Part
**  
**
** ASSEMBLY
**
*Assembly, name=Assembly
**  
*Instance, name=pipe-1-1, part=pipe-1
*End Instance
**  
*Nset, nset=_PickedSet16, internal, instance=pipe-1-1, generate
  1,  22,   1
*Elset, elset=_PickedSet16, internal, instance=pipe-1-1, generate
  1,  22,   1
*Nset, nset=_PickedSet18, internal, instance=pipe-1-1
 22,
*Elset, elset=__PickedSurf15_SPOS, internal, instance=pipe-1-1, generate
   1,  770,    1
*Surface, type=ELEMENT, name=_PickedSurf15, internal
__PickedSurf15_SPOS, SPOS
*End Assembly
** 
** MATERIALS
** 
*Material, name=steel
*Elastic
 2.15e+09, 0.28
** ----------------------------------------------------------------
** 
** STEP: static
** 
*Step, name=static
*Static, direct
0.1, 1., 
** 
** BOUNDARY CONDITIONS
** 
** Name: BC-1 Type: Displacement/Rotation
*Boundary
_PickedSet16, 3, 3
_PickedSet16, 4, 4
_PickedSet16, 5, 5
** Name: BC-2 Type: Displacement/Rotation
*Boundary
_PickedSet18, 1, 1
_PickedSet18, 2, 2
_PickedSet18, 6, 6
** 
** LOADS
** 
** Name: Load-1   Type: Pressure
**Nodal Pressure
*CLoad
pipe-1-1.1, 1, 0.955315
*CLoad
pipe-1-1.1, 2, -0.280071
*CLoad
pipe-1-1.1, 3, -4.93189e-006
*CLoad
pipe-1-1.2, 1, 0.839738
*CLoad
pipe-1-1.2, 2, -0.540135
*CLoad
pipe-1-1.2, 3, 2.66198e-006
*CLoad
pipe-1-1.3, 1, 0.649248
*CLoad
pipe-1-1.3, 2, -0.749946
*CLoad
pipe-1-1.3, 3, 1.85243e-005
*CLoad
pipe-1-1.4, 1, 0.414171
*CLoad
pipe-1-1.4, 2, -0.905877
*CLoad
pipe-1-1.4, 3, -9.31145e-006
*CLoad
pipe-1-1.5, 1, 0.141602
*CLoad
pipe-1-1.5, 2, -0.984926
*CLoad
pipe-1-1.5, 3, 6.944e-007
*CLoad
pipe-1-1.6, 1, -0.141604
*CLoad
pipe-1-1.6, 2, -0.984925
*CLoad
pipe-1-1.6, 3, 4.71617e-006
*CLoad
pipe-1-1.7, 1, -0.414167
*CLoad
pipe-1-1.7, 2, -0.905879
*CLoad
pipe-1-1.7, 3, -1.0731e-006
*CLoad
pipe-1-1.8, 1, -0.649232
*CLoad
pipe-1-1.8, 2, -0.749933
*CLoad
pipe-1-1.8, 3, 1.1077e-005
*CLoad
pipe-1-1.9, 1, -0.839766
*CLoad
pipe-1-1.9, 2, -0.540158
*CLoad
pipe-1-1.9, 3, 4.65362e-007
*CLoad
pipe-1-1.10, 1, -0.955306
*CLoad
pipe-1-1.10, 2, -0.280065
*CLoad
pipe-1-1.10, 3, 1.3445e-006
*CLoad
pipe-1-1.11, 1, -0.992422
*CLoad
pipe-1-1.11, 2, -1.62128e-005
*CLoad
pipe-1-1.11, 3, -1.27931e-005
*CLoad
pipe-1-1.12, 1, -0.955528
*CLoad
pipe-1-1.12, 2, 0.280151
*CLoad
pipe-1-1.12, 3, 4.57815e-006
*CLoad
pipe-1-1.13, 1, -0.839539
*CLoad
pipe-1-1.13, 2, 0.540042
*CLoad
pipe-1-1.13, 3, 1.84426e-006
*CLoad
pipe-1-1.14, 1, -0.649306
*CLoad
pipe-1-1.14, 2, 0.749974
*CLoad
pipe-1-1.14, 3, 1.59707e-005
*CLoad
pipe-1-1.15, 1, -0.414169
*CLoad
pipe-1-1.15, 2, 0.905883
*CLoad
pipe-1-1.15, 3, -9.2429e-006
*CLoad
pipe-1-1.16, 1, -0.141604
*CLoad
pipe-1-1.16, 2, 0.984926
*CLoad
pipe-1-1.16, 3, 8.07155e-006
*CLoad
pipe-1-1.17, 1, 0.141602
*CLoad
pipe-1-1.17, 2, 0.984926
*CLoad
pipe-1-1.17, 3, 4.35921e-006
*CLoad
pipe-1-1.18, 1, 0.414173
*CLoad
pipe-1-1.18, 2, 0.905882
*CLoad
pipe-1-1.18, 3, -4.28755e-006
*CLoad
pipe-1-1.19, 1, 0.6493
*CLoad
pipe-1-1.19, 2, 0.749973
*CLoad
pipe-1-1.19, 3, 1.4463e-005
*CLoad
pipe-1-1.20, 1, 0.839551
*CLoad
pipe-1-1.20, 2, 0.540046
*CLoad
pipe-1-1.20, 3, 3.28261e-006
*CLoad
pipe-1-1.21, 1, 0.955521
*CLoad
pipe-1-1.21, 2, 0.280148
*CLoad
pipe-1-1.21, 3, -5.0319e-006
*CLoad
pipe-1-1.22, 1, 0.992425
*CLoad
pipe-1-1.22, 2, -1.99103e-005
*CLoad
pipe-1-1.22, 3, -3.06968e-005
*CLoad
pipe-1-1.23, 1, 0.956856
*CLoad
pipe-1-1.23, 2, -0.280518
*CLoad
pipe-1-1.23, 3, -2.90247e-008
*CLoad
pipe-1-1.24, 1, 0.841113
*CLoad
pipe-1-1.24, 2, -0.541021
*CLoad
pipe-1-1.24, 3, 1.17465e-007
*CLoad
pipe-1-1.25, 1, 0.650302
*CLoad
pipe-1-1.25, 2, -0.751162
*CLoad
pipe-1-1.25, 3, 1.65289e-007
*CLoad
pipe-1-1.26, 1, 0.414847
*CLoad
pipe-1-1.26, 2, -0.907356
*CLoad
pipe-1-1.26, 3, -1.00299e-007
*CLoad
pipe-1-1.27, 1, 0.141832
*CLoad
pipe-1-1.27, 2, -0.986527
*CLoad
pipe-1-1.27, 3, 4.69945e-008
*CLoad
pipe-1-1.28, 1, -0.141834
*CLoad
pipe-1-1.28, 2, -0.986526
*CLoad
pipe-1-1.28, 3, -2.12487e-007
*CLoad
pipe-1-1.29, 1, -0.414844
*CLoad
pipe-1-1.29, 2, -0.907357
*CLoad
pipe-1-1.29, 3, 1.92298e-007
*CLoad
pipe-1-1.30, 1, -0.650301
*CLoad
pipe-1-1.30, 2, -0.751158
*CLoad
pipe-1-1.30, 3, -8.89809e-008
*CLoad
pipe-1-1.31, 1, -0.841119
*CLoad
pipe-1-1.31, 2, -0.541029
*CLoad
pipe-1-1.31, 3, 1.01979e-007
*CLoad
pipe-1-1.32, 1, -0.956853
*CLoad
pipe-1-1.32, 2, -0.280517
*CLoad
pipe-1-1.32, 3, -8.62617e-008
*CLoad
pipe-1-1.33, 1, -0.994047
*CLoad
pipe-1-1.33, 2, -1.77039e-005
*CLoad
pipe-1-1.33, 3, -1.27407e-007
*CLoad
pipe-1-1.34, 1, -0.957078
*CLoad
pipe-1-1.34, 2, 0.280604
*CLoad
pipe-1-1.34, 3, 1.57064e-007
*CLoad
pipe-1-1.35, 1, -0.840893
*CLoad
pipe-1-1.35, 2, 0.540915
*CLoad
pipe-1-1.35, 3, 7.37451e-008
*CLoad
pipe-1-1.36, 1, -0.650372
*CLoad
pipe-1-1.36, 2, 0.751197
*CLoad
pipe-1-1.36, 3, -6.62398e-009
*CLoad
pipe-1-1.37, 1, -0.414846
*CLoad
pipe-1-1.37, 2, 0.907363
*CLoad
pipe-1-1.37, 3, 9.86534e-008
*CLoad
pipe-1-1.38, 1, -0.141834
*CLoad
pipe-1-1.38, 2, 0.986526
*CLoad
pipe-1-1.38, 3, -1.70806e-008
*CLoad
pipe-1-1.39, 1, 0.141833
*CLoad
pipe-1-1.39, 2, 0.986527
*CLoad
pipe-1-1.39, 3, -1.31211e-007
*CLoad
pipe-1-1.40, 1, 0.414849
*CLoad
pipe-1-1.40, 2, 0.907361
*CLoad
pipe-1-1.40, 3, 1.45434e-008
*CLoad
pipe-1-1.41, 1, 0.650369
*CLoad
pipe-1-1.41, 2, 0.751198
*CLoad
pipe-1-1.41, 3, 6.99077e-008
*CLoad
pipe-1-1.42, 1, 0.840896
*CLoad
pipe-1-1.42, 2, 0.540912
*CLoad
pipe-1-1.42, 3, 2.50618e-007
*CLoad
pipe-1-1.43, 1, 0.957077
*CLoad
pipe-1-1.43, 2, 0.280604
*CLoad
pipe-1-1.43, 3, -3.76288e-007
*CLoad
pipe-1-1.44, 1, 0.994047
*CLoad
pipe-1-1.44, 2, -1.89491e-005
*CLoad
pipe-1-1.44, 3, -8.49538e-007
*CLoad
pipe-1-1.45, 1, 0.956488
*CLoad
pipe-1-1.45, 2, -0.280414
*CLoad
pipe-1-1.45, 3, 9.2899e-008
*CLoad
pipe-1-1.46, 1, 0.840784
*CLoad
pipe-1-1.46, 2, -0.540805
*CLoad
pipe-1-1.46, 3, -1.69846e-007
*CLoad
pipe-1-1.47, 1, 0.650064
*CLoad
pipe-1-1.47, 2, -0.750887
*CLoad
pipe-1-1.47, 3, -3.99559e-008
*CLoad
pipe-1-1.48, 1, 0.414684
*CLoad
pipe-1-1.48, 2, -0.906997
*CLoad
pipe-1-1.48, 3, 9.83344e-008
*CLoad
pipe-1-1.49, 1, 0.141774
*CLoad
pipe-1-1.49, 2, -0.986147
*CLoad
pipe-1-1.49, 3, -2.24856e-007
*CLoad
pipe-1-1.50, 1, -0.141776
*CLoad
pipe-1-1.50, 2, -0.986147
*CLoad
pipe-1-1.50, 3, 2.2811e-007
*CLoad
pipe-1-1.51, 1, -0.414681
*CLoad
pipe-1-1.51, 2, -0.906999
*CLoad
pipe-1-1.51, 3, -1.07886e-007
*CLoad
pipe-1-1.52, 1, -0.650066
*CLoad
pipe-1-1.52, 2, -0.750885
*CLoad
pipe-1-1.52, 3, 1.44169e-008
*CLoad
pipe-1-1.53, 1, -0.840782
*CLoad
pipe-1-1.53, 2, -0.540808
*CLoad
pipe-1-1.53, 3, 1.68873e-007
*CLoad
pipe-1-1.54, 1, -0.956489
*CLoad
pipe-1-1.54, 2, -0.280415
*CLoad
pipe-1-1.54, 3, -8.45808e-008
*CLoad
pipe-1-1.55, 1, -0.993662
*CLoad
pipe-1-1.55, 2, -1.77829e-005
*CLoad
pipe-1-1.55, 3, -1.86399e-007
*CLoad
pipe-1-1.56, 1, -0.956713
*CLoad
pipe-1-1.56, 2, 0.280502
*CLoad
pipe-1-1.56, 3, -3.86891e-010
*CLoad
pipe-1-1.57, 1, -0.840558
*CLoad
pipe-1-1.57, 2, 0.540695
*CLoad
pipe-1-1.57, 3, -1.43699e-012
*CLoad
pipe-1-1.58, 1, -0.650136
*CLoad
pipe-1-1.58, 2, 0.750923
*CLoad
pipe-1-1.58, 3, 3.03488e-012
*CLoad
pipe-1-1.59, 1, -0.414684
*CLoad
pipe-1-1.59, 2, 0.907005
*CLoad
pipe-1-1.59, 3, 5.11768e-013
*CLoad
pipe-1-1.60, 1, -0.141776
*CLoad
pipe-1-1.60, 2, 0.986146
*CLoad
pipe-1-1.60, 3, 4.85963e-013
*CLoad
pipe-1-1.61, 1, 0.141774
*CLoad
pipe-1-1.61, 2, 0.986147
*CLoad
pipe-1-1.61, 3, 6.78658e-012
*CLoad
pipe-1-1.62, 1, 0.414686
*CLoad
pipe-1-1.62, 2, 0.907003
*CLoad
pipe-1-1.62, 3, -3.3162e-012
*CLoad
pipe-1-1.63, 1, 0.650134
*CLoad
pipe-1-1.63, 2, 0.750925
*CLoad
pipe-1-1.63, 3, -1.92173e-012
*CLoad
pipe-1-1.64, 1, 0.84056
*CLoad
pipe-1-1.64, 2, 0.540692
*CLoad
pipe-1-1.64, 3, 3.12607e-012
*CLoad
pipe-1-1.65, 1, 0.956712
*CLoad
pipe-1-1.65, 2, 0.280502
*CLoad
pipe-1-1.65, 3, -6.26194e-011
*CLoad
pipe-1-1.66, 1, 0.993662
*CLoad
pipe-1-1.66, 2, -1.88166e-005
*CLoad
pipe-1-1.66, 3, 2.18336e-007
*CLoad
pipe-1-1.67, 1, 0.956928
*CLoad
pipe-1-1.67, 2, -0.280548
*CLoad
pipe-1-1.67, 3, -1.72569e-007
*CLoad
pipe-1-1.68, 1, 0.841142
*CLoad
pipe-1-1.68, 2, -0.541028
*CLoad
pipe-1-1.68, 3, 2.81674e-007
*CLoad
pipe-1-1.69, 1, 0.6504
*CLoad
pipe-1-1.69, 2, -0.751264
*CLoad
pipe-1-1.69, 3, 1.50272e-008
*CLoad
pipe-1-1.70, 1, 0.414872
*CLoad
pipe-1-1.70, 2, -0.907414
*CLoad
pipe-1-1.70, 3, -8.67956e-008
*CLoad
pipe-1-1.71, 1, 0.141841
*CLoad
pipe-1-1.71, 2, -0.986607
*CLoad
pipe-1-1.71, 3, 2.33232e-007
*CLoad
pipe-1-1.72, 1, -0.141843
*CLoad
pipe-1-1.72, 2, -0.986607
*CLoad
pipe-1-1.72, 3, -2.37332e-007
*CLoad
pipe-1-1.73, 1, -0.414869
*CLoad
pipe-1-1.73, 2, -0.907416
*CLoad
pipe-1-1.73, 3, 1.01464e-007
*CLoad
pipe-1-1.74, 1, -0.650402
*CLoad
pipe-1-1.74, 2, -0.751262
*CLoad
pipe-1-1.74, 3, 1.04227e-008
*CLoad
pipe-1-1.75, 1, -0.84114
*CLoad
pipe-1-1.75, 2, -0.541032
*CLoad
pipe-1-1.75, 3, -2.81014e-007
*CLoad
pipe-1-1.76, 1, -0.956929
*CLoad
pipe-1-1.76, 2, -0.280549
*CLoad
pipe-1-1.76, 3, 1.63569e-007
*CLoad
pipe-1-1.77, 1, -0.99415
*CLoad
pipe-1-1.77, 2, -1.76598e-005
*CLoad
pipe-1-1.77, 3, 2.73894e-007
*CLoad
pipe-1-1.78, 1, -0.957151
*CLoad
pipe-1-1.78, 2, 0.280635
*CLoad
pipe-1-1.78, 3, -4.5025e-010
*CLoad
pipe-1-1.79, 1, -0.84092
*CLoad
pipe-1-1.79, 2, 0.540921
*CLoad
pipe-1-1.79, 3, -1.52245e-012
*CLoad
pipe-1-1.80, 1, -0.65047
*CLoad
pipe-1-1.80, 2, 0.7513
*CLoad
pipe-1-1.80, 3, 3.05417e-012
*CLoad
pipe-1-1.81, 1, -0.414871
*CLoad
pipe-1-1.81, 2, 0.907421
*CLoad
pipe-1-1.81, 3, 3.90964e-012
*CLoad
pipe-1-1.82, 1, -0.141843
*CLoad
pipe-1-1.82, 2, 0.986607
*CLoad
pipe-1-1.82, 3, 1.56582e-012
*CLoad
pipe-1-1.83, 1, 0.141841
*CLoad
pipe-1-1.83, 2, 0.986607
*CLoad
pipe-1-1.83, 3, 6.59965e-012
*CLoad
pipe-1-1.84, 1, 0.414874
*CLoad
pipe-1-1.84, 2, 0.90742
*CLoad
pipe-1-1.84, 3, -3.32926e-012
*CLoad
pipe-1-1.85, 1, 0.650468
*CLoad
pipe-1-1.85, 2, 0.751301
*CLoad
pipe-1-1.85, 3, -2.91656e-012
*CLoad
pipe-1-1.86, 1, 0.840921
*CLoad
pipe-1-1.86, 2, 0.540917
*CLoad
pipe-1-1.86, 3, 3.44942e-012
*CLoad
pipe-1-1.87, 1, 0.95715
*CLoad
pipe-1-1.87, 2, 0.280635
*CLoad
pipe-1-1.87, 3, -6.07049e-011
*CLoad
pipe-1-1.88, 1, 0.99415
*CLoad
pipe-1-1.88, 2, -1.8653e-005
*CLoad
pipe-1-1.88, 3, -2.42767e-007
*CLoad
pipe-1-1.89, 1, 0.956928
*CLoad
pipe-1-1.89, 2, -0.280548
*CLoad
pipe-1-1.89, 3, 1.72448e-007
*CLoad
pipe-1-1.90, 1, 0.841142
*CLoad
pipe-1-1.90, 2, -0.541028
*CLoad
pipe-1-1.90, 3, -2.81675e-007
*CLoad
pipe-1-1.91, 1, 0.6504
*CLoad
pipe-1-1.91, 2, -0.751264
*CLoad
pipe-1-1.91, 3, -1.50261e-008
*CLoad
pipe-1-1.92, 1, 0.414872
*CLoad
pipe-1-1.92, 2, -0.907414
*CLoad
pipe-1-1.92, 3, 8.67969e-008
*CLoad
pipe-1-1.93, 1, 0.141841
*CLoad
pipe-1-1.93, 2, -0.986607
*CLoad
pipe-1-1.93, 3, -2.33236e-007
*CLoad
pipe-1-1.94, 1, -0.141843
*CLoad
pipe-1-1.94, 2, -0.986607
*CLoad
pipe-1-1.94, 3, 2.37328e-007
*CLoad
pipe-1-1.95, 1, -0.414869
*CLoad
pipe-1-1.95, 2, -0.907416
*CLoad
pipe-1-1.95, 3, -1.01466e-007
*CLoad
pipe-1-1.96, 1, -0.650402
*CLoad
pipe-1-1.96, 2, -0.751262
*CLoad
pipe-1-1.96, 3, -1.04172e-008
*CLoad
pipe-1-1.97, 1, -0.84114
*CLoad
pipe-1-1.97, 2, -0.541032
*CLoad
pipe-1-1.97, 3, 2.81014e-007
*CLoad
pipe-1-1.98, 1, -0.956929
*CLoad
pipe-1-1.98, 2, -0.280549
*CLoad
pipe-1-1.98, 3, -1.63669e-007
*CLoad
pipe-1-1.99, 1, -0.99415
*CLoad
pipe-1-1.99, 2, -1.76907e-005
*CLoad
pipe-1-1.99, 3, -2.10026e-007
*CLoad
pipe-1-1.100, 1, -0.957151
*CLoad
pipe-1-1.100, 2, 0.280635
*CLoad
pipe-1-1.100, 3, -4.31248e-010
*CLoad
pipe-1-1.101, 1, -0.84092
*CLoad
pipe-1-1.101, 2, 0.540921
*CLoad
pipe-1-1.101, 3, -1.52984e-012
*CLoad
pipe-1-1.102, 1, -0.65047
*CLoad
pipe-1-1.102, 2, 0.7513
*CLoad
pipe-1-1.102, 3, 3.02949e-012
*CLoad
pipe-1-1.103, 1, -0.414871
*CLoad
pipe-1-1.103, 2, 0.907421
*CLoad
pipe-1-1.103, 3, 3.89812e-012
*CLoad
pipe-1-1.104, 1, -0.141843
*CLoad
pipe-1-1.104, 2, 0.986607
*CLoad
pipe-1-1.104, 3, 1.21247e-012
*CLoad
pipe-1-1.105, 1, 0.141841
*CLoad
pipe-1-1.105, 2, 0.986607
*CLoad
pipe-1-1.105, 3, 6.46932e-012
*CLoad
pipe-1-1.106, 1, 0.414874
*CLoad
pipe-1-1.106, 2, 0.90742
*CLoad
pipe-1-1.106, 3, -4.10744e-012
*CLoad
pipe-1-1.107, 1, 0.650468
*CLoad
pipe-1-1.107, 2, 0.751301
*CLoad
pipe-1-1.107, 3, 9.43041e-013
*CLoad
pipe-1-1.108, 1, 0.840921
*CLoad
pipe-1-1.108, 2, 0.540917
*CLoad
pipe-1-1.108, 3, 1.75825e-013
*CLoad
pipe-1-1.109, 1, 0.95715
*CLoad
pipe-1-1.109, 2, 0.280635
*CLoad
pipe-1-1.109, 3, -5.5627e-011
*CLoad
pipe-1-1.110, 1, 0.99415
*CLoad
pipe-1-1.110, 2, -1.86531e-005
*CLoad
pipe-1-1.110, 3, 2.42281e-007
*CLoad
pipe-1-1.111, 1, 0.956488
*CLoad
pipe-1-1.111, 2, -0.280414
*CLoad
pipe-1-1.111, 3, -9.3021e-008
*CLoad
pipe-1-1.112, 1, 0.840784
*CLoad
pipe-1-1.112, 2, -0.540805
*CLoad
pipe-1-1.112, 3, 1.69842e-007
*CLoad
pipe-1-1.113, 1, 0.650064
*CLoad
pipe-1-1.113, 2, -0.750887
*CLoad
pipe-1-1.113, 3, 3.99559e-008
*CLoad
pipe-1-1.114, 1, 0.414684
*CLoad
pipe-1-1.114, 2, -0.906997
*CLoad
pipe-1-1.114, 3, -9.83331e-008
*CLoad
pipe-1-1.115, 1, 0.141774
*CLoad
pipe-1-1.115, 2, -0.986147
*CLoad
pipe-1-1.115, 3, 2.2485e-007
*CLoad
pipe-1-1.116, 1, -0.141776
*CLoad
pipe-1-1.116, 2, -0.986147
*CLoad
pipe-1-1.116, 3, -2.28114e-007
*CLoad
pipe-1-1.117, 1, -0.414681
*CLoad
pipe-1-1.117, 2, -0.906999
*CLoad
pipe-1-1.117, 3, 1.07882e-007
*CLoad
pipe-1-1.118, 1, -0.650066
*CLoad
pipe-1-1.118, 2, -0.750885
*CLoad
pipe-1-1.118, 3, -1.4424e-008
*CLoad
pipe-1-1.119, 1, -0.840782
*CLoad
pipe-1-1.119, 2, -0.540808
*CLoad
pipe-1-1.119, 3, -1.68872e-007
*CLoad
pipe-1-1.120, 1, -0.956489
*CLoad
pipe-1-1.120, 2, -0.280415
*CLoad
pipe-1-1.120, 3, 8.44774e-008
*CLoad
pipe-1-1.121, 1, -0.993662
*CLoad
pipe-1-1.121, 2, -1.78758e-005
*CLoad
pipe-1-1.121, 3, 2.5016e-007
*CLoad
pipe-1-1.122, 1, -0.956713
*CLoad
pipe-1-1.122, 2, 0.280502
*CLoad
pipe-1-1.122, 3, -3.66602e-010
*CLoad
pipe-1-1.123, 1, -0.840558
*CLoad
pipe-1-1.123, 2, 0.540695
*CLoad
pipe-1-1.123, 3, -1.43233e-012
*CLoad
pipe-1-1.124, 1, -0.650136
*CLoad
pipe-1-1.124, 2, 0.750923
*CLoad
pipe-1-1.124, 3, 3.04997e-012
*CLoad
pipe-1-1.125, 1, -0.414684
*CLoad
pipe-1-1.125, 2, 0.907005
*CLoad
pipe-1-1.125, 3, 3.89575e-012
*CLoad
pipe-1-1.126, 1, -0.141776
*CLoad
pipe-1-1.126, 2, 0.986146
*CLoad
pipe-1-1.126, 3, 1.56226e-012
*CLoad
pipe-1-1.127, 1, 0.141774
*CLoad
pipe-1-1.127, 2, 0.986147
*CLoad
pipe-1-1.127, 3, 6.57096e-012
*CLoad
pipe-1-1.128, 1, 0.414686
*CLoad
pipe-1-1.128, 2, 0.907003
*CLoad
pipe-1-1.128, 3, -3.42479e-012
*CLoad
pipe-1-1.129, 1, 0.650134
*CLoad
pipe-1-1.129, 2, 0.750925
*CLoad
pipe-1-1.129, 3, -1.51238e-012
*CLoad
pipe-1-1.130, 1, 0.84056
*CLoad
pipe-1-1.130, 2, 0.540692
*CLoad
pipe-1-1.130, 3, 3.4451e-012
*CLoad
pipe-1-1.131, 1, 0.956712
*CLoad
pipe-1-1.131, 2, 0.280502
*CLoad
pipe-1-1.131, 3, -5.20045e-011
*CLoad
pipe-1-1.132, 1, 0.993662
*CLoad
pipe-1-1.132, 2, -1.88167e-005
*CLoad
pipe-1-1.132, 3, -2.18818e-007
*CLoad
pipe-1-1.133, 1, 0.956485
*CLoad
pipe-1-1.133, 2, -0.280412
*CLoad
pipe-1-1.133, 3, 7.4529e-008
*CLoad
pipe-1-1.134, 1, 0.840785
*CLoad
pipe-1-1.134, 2, -0.540806
*CLoad
pipe-1-1.134, 3, -1.38438e-007
*CLoad
pipe-1-1.135, 1, 0.650061
*CLoad
pipe-1-1.135, 2, -0.750884
*CLoad
pipe-1-1.135, 3, -2.99921e-008
*CLoad
pipe-1-1.136, 1, 0.414684
*CLoad
pipe-1-1.136, 2, -0.906999
*CLoad
pipe-1-1.136, 3, 8.77823e-008
*CLoad
pipe-1-1.137, 1, 0.141775
*CLoad
pipe-1-1.137, 2, -0.986147
*CLoad
pipe-1-1.137, 3, -1.92742e-007
*CLoad
pipe-1-1.138, 1, -0.141777
*CLoad
pipe-1-1.138, 2, -0.986146
*CLoad
pipe-1-1.138, 3, 1.95401e-007
*CLoad
pipe-1-1.139, 1, -0.414681
*CLoad
pipe-1-1.139, 2, -0.907
*CLoad
pipe-1-1.139, 3, -9.54999e-008
*CLoad
pipe-1-1.140, 1, -0.650063
*CLoad
pipe-1-1.140, 2, -0.750883
*CLoad
pipe-1-1.140, 3, 8.9963e-009
*CLoad
pipe-1-1.141, 1, -0.840783
*CLoad
pipe-1-1.141, 2, -0.540809
*CLoad
pipe-1-1.141, 3, 1.3762e-007
*CLoad
pipe-1-1.142, 1, -0.956486
*CLoad
pipe-1-1.142, 2, -0.280413
*CLoad
pipe-1-1.142, 3, -6.76426e-008
*CLoad
pipe-1-1.143, 1, -0.993668
*CLoad
pipe-1-1.143, 2, -1.79649e-005
*CLoad
pipe-1-1.143, 3, -1.46334e-007
*CLoad
pipe-1-1.144, 1, -0.95671
*CLoad
pipe-1-1.144, 2, 0.2805
*CLoad
pipe-1-1.144, 3, -3.42859e-010
*CLoad
pipe-1-1.145, 1, -0.840559
*CLoad
pipe-1-1.145, 2, 0.540696
*CLoad
pipe-1-1.145, 3, -1.44401e-012
*CLoad
pipe-1-1.146, 1, -0.650134
*CLoad
pipe-1-1.146, 2, 0.750921
*CLoad
pipe-1-1.146, 3, 3.02094e-012
*CLoad
pipe-1-1.147, 1, -0.414683
*CLoad
pipe-1-1.147, 2, 0.907006
*CLoad
pipe-1-1.147, 3, 3.87908e-012
*CLoad
pipe-1-1.148, 1, -0.141777
*CLoad
pipe-1-1.148, 2, 0.986146
*CLoad
pipe-1-1.148, 3, 1.53161e-012
*CLoad
pipe-1-1.149, 1, 0.141776
*CLoad
pipe-1-1.149, 2, 0.986146
*CLoad
pipe-1-1.149, 3, 7.4769e-012
*CLoad
pipe-1-1.150, 1, 0.414686
*CLoad
pipe-1-1.150, 2, 0.907005
*CLoad
pipe-1-1.150, 3, -3.31176e-012
*CLoad
pipe-1-1.151, 1, 0.650132
*CLoad
pipe-1-1.151, 2, 0.750923
*CLoad
pipe-1-1.151, 3, -1.91507e-012
*CLoad
pipe-1-1.152, 1, 0.840561
*CLoad
pipe-1-1.152, 2, 0.540693
*CLoad
pipe-1-1.152, 3, 3.12383e-012
*CLoad
pipe-1-1.153, 1, 0.956709
*CLoad
pipe-1-1.153, 2, 0.2805
*CLoad
pipe-1-1.153, 3, -4.61866e-011
*CLoad
pipe-1-1.154, 1, 0.993667
*CLoad
pipe-1-1.154, 2, -1.88744e-005
*CLoad
pipe-1-1.154, 3, 1.78362e-007
*CLoad
pipe-1-1.155, 1, 0.956485
*CLoad
pipe-1-1.155, 2, -0.280411
*CLoad
pipe-1-1.155, 3, -5.70205e-008
*CLoad
pipe-1-1.156, 1, 0.840786
*CLoad
pipe-1-1.156, 2, -0.540807
*CLoad
pipe-1-1.156, 3, 1.07312e-007
*CLoad
pipe-1-1.157, 1, 0.65006
*CLoad
pipe-1-1.157, 2, -0.750882
*CLoad
pipe-1-1.157, 3, 2.16536e-008
*CLoad
pipe-1-1.158, 1, 0.414684
*CLoad
pipe-1-1.158, 2, -0.907
*CLoad
pipe-1-1.158, 3, -7.12848e-008
*CLoad
pipe-1-1.159, 1, 0.141776
*CLoad
pipe-1-1.159, 2, -0.986147
*CLoad
pipe-1-1.159, 3, 1.53823e-007
*CLoad
pipe-1-1.160, 1, -0.141778
*CLoad
pipe-1-1.160, 2, -0.986146
*CLoad
pipe-1-1.160, 3, -1.55895e-007
*CLoad
pipe-1-1.161, 1, -0.414681
*CLoad
pipe-1-1.161, 2, -0.907001
*CLoad
pipe-1-1.161, 3, 7.72247e-008
*CLoad
pipe-1-1.162, 1, -0.650062
*CLoad
pipe-1-1.162, 2, -0.750881
*CLoad
pipe-1-1.162, 3, -5.26355e-009
*CLoad
pipe-1-1.163, 1, -0.840784
*CLoad
pipe-1-1.163, 2, -0.54081
*CLoad
pipe-1-1.163, 3, -1.06664e-007
*CLoad
pipe-1-1.164, 1, -0.956485
*CLoad
pipe-1-1.164, 2, -0.280413
*CLoad
pipe-1-1.164, 3, 5.14828e-008
*CLoad
pipe-1-1.165, 1, -0.993667
*CLoad
pipe-1-1.165, 2, -1.80396e-005
*CLoad
pipe-1-1.165, 3, 1.70578e-007
*CLoad
pipe-1-1.166, 1, -0.95671
*CLoad
pipe-1-1.166, 2, 0.2805
*CLoad
pipe-1-1.166, 3, -3.52758e-010
*CLoad
pipe-1-1.167, 1, -0.84056
*CLoad
pipe-1-1.167, 2, 0.540697
*CLoad
pipe-1-1.167, 3, -1.47805e-012
*CLoad
pipe-1-1.168, 1, -0.650132
*CLoad
pipe-1-1.168, 2, 0.750919
*CLoad
pipe-1-1.168, 3, 3.03958e-012
*CLoad
pipe-1-1.169, 1, -0.414683
*CLoad
pipe-1-1.169, 2, 0.907007
*CLoad
pipe-1-1.169, 3, 4.40455e-012
*CLoad
pipe-1-1.170, 1, -0.141778
*CLoad
pipe-1-1.170, 2, 0.986146
*CLoad
pipe-1-1.170, 3, 4.15854e-012
*CLoad
pipe-1-1.171, 1, 0.141777
*CLoad
pipe-1-1.171, 2, 0.986147
*CLoad
pipe-1-1.171, 3, 6.58036e-012
*CLoad
pipe-1-1.172, 1, 0.414686
*CLoad
pipe-1-1.172, 2, 0.907005
*CLoad
pipe-1-1.172, 3, -3.31248e-012
*CLoad
pipe-1-1.173, 1, 0.65013
*CLoad
pipe-1-1.173, 2, 0.750921
*CLoad
pipe-1-1.173, 3, -1.91761e-012
*CLoad
pipe-1-1.174, 1, 0.840562
*CLoad
pipe-1-1.174, 2, 0.540694
*CLoad
pipe-1-1.174, 3, 3.16011e-012
*CLoad
pipe-1-1.175, 1, 0.956709
*CLoad
pipe-1-1.175, 2, 0.280499
*CLoad
pipe-1-1.175, 3, -4.39122e-011
*CLoad
pipe-1-1.176, 1, 0.993667
*CLoad
pipe-1-1.176, 2, -1.89176e-005
*CLoad
pipe-1-1.176, 3, -1.38967e-007
*CLoad
pipe-1-1.177, 1, 0.956485
*CLoad
pipe-1-1.177, 2, -0.280411
*CLoad
pipe-1-1.177, 3, 4.00748e-008
*CLoad
pipe-1-1.178, 1, 0.840787
*CLoad
pipe-1-1.178, 2, -0.540808
*CLoad
pipe-1-1.178, 3, -7.64532e-008
*CLoad
pipe-1-1.179, 1, 0.650058
*CLoad
pipe-1-1.179, 2, -0.750881
*CLoad
pipe-1-1.179, 3, -1.45655e-008
*CLoad
pipe-1-1.180, 1, 0.414684
*CLoad
pipe-1-1.180, 2, -0.907
*CLoad
pipe-1-1.180, 3, 5.20268e-008
*CLoad
pipe-1-1.181, 1, 0.141777
*CLoad
pipe-1-1.181, 2, -0.986147
*CLoad
pipe-1-1.181, 3, -1.11473e-007
*CLoad
pipe-1-1.182, 1, -0.141778
*CLoad
pipe-1-1.182, 2, -0.986146
*CLoad
pipe-1-1.182, 3, 1.12946e-007
*CLoad
pipe-1-1.183, 1, -0.414681
*CLoad
pipe-1-1.183, 2, -0.907002
*CLoad
pipe-1-1.183, 3, -5.62398e-008
*CLoad
pipe-1-1.184, 1, -0.65006
*CLoad
pipe-1-1.184, 2, -0.750879
*CLoad
pipe-1-1.184, 3, 2.82361e-009
*CLoad
pipe-1-1.185, 1, -0.840785
*CLoad
pipe-1-1.185, 2, -0.540811
*CLoad
pipe-1-1.185, 3, 7.59814e-008
*CLoad
pipe-1-1.186, 1, -0.956486
*CLoad
pipe-1-1.186, 2, -0.280412
*CLoad
pipe-1-1.186, 3, -3.6236e-008
*CLoad
pipe-1-1.187, 1, -0.993666
*CLoad
pipe-1-1.187, 2, -1.80918e-005
*CLoad
pipe-1-1.187, 3, -6.69583e-008
*CLoad
pipe-1-1.188, 1, -0.95671
*CLoad
pipe-1-1.188, 2, 0.280499
*CLoad
pipe-1-1.188, 3, -3.29387e-010
*CLoad
pipe-1-1.189, 1, -0.840561
*CLoad
pipe-1-1.189, 2, 0.540698
*CLoad
pipe-1-1.189, 3, -1.46104e-012
*CLoad
pipe-1-1.190, 1, -0.650131
*CLoad
pipe-1-1.190, 2, 0.750918
*CLoad
pipe-1-1.190, 3, 3.03344e-012
*CLoad
pipe-1-1.191, 1, -0.414683
*CLoad
pipe-1-1.191, 2, 0.907007
*CLoad
pipe-1-1.191, 3, 4.2226e-012
*CLoad
pipe-1-1.192, 1, -0.141779
*CLoad
pipe-1-1.192, 2, 0.986146
*CLoad
pipe-1-1.192, 3, 2.34389e-012
*CLoad
pipe-1-1.193, 1, 0.141777
*CLoad
pipe-1-1.193, 2, 0.986147
*CLoad
pipe-1-1.193, 3, 6.35387e-012
*CLoad
pipe-1-1.194, 1, 0.414686
*CLoad
pipe-1-1.194, 2, 0.907006
*CLoad
pipe-1-1.194, 3, -3.31516e-012
*CLoad
pipe-1-1.195, 1, 0.650129
*CLoad
pipe-1-1.195, 2, 0.750919
*CLoad
pipe-1-1.195, 3, -1.92118e-012
*CLoad
pipe-1-1.196, 1, 0.840562
*CLoad
pipe-1-1.196, 2, 0.540694
*CLoad
pipe-1-1.196, 3, 3.12876e-012
*CLoad
pipe-1-1.197, 1, 0.956709
*CLoad
pipe-1-1.197, 2, 0.280499
*CLoad
pipe-1-1.197, 3, -3.69308e-011
*CLoad
pipe-1-1.198, 1, 0.993665
*CLoad
pipe-1-1.198, 2, -1.89386e-005
*CLoad
pipe-1-1.198, 3, 9.89355e-008
*CLoad
pipe-1-1.199, 1, 0.956485
*CLoad
pipe-1-1.199, 2, -0.280411
*CLoad
pipe-1-1.199, 3, -2.38693e-008
*CLoad
pipe-1-1.200, 1, 0.840787
*CLoad
pipe-1-1.200, 2, -0.540808
*CLoad
pipe-1-1.200, 3, 4.57879e-008
*CLoad
pipe-1-1.201, 1, 0.650057
*CLoad
pipe-1-1.201, 2, -0.75088
*CLoad
pipe-1-1.201, 3, 8.37817e-009
*CLoad
pipe-1-1.202, 1, 0.414684
*CLoad
pipe-1-1.202, 2, -0.907001
*CLoad
pipe-1-1.202, 3, -3.15429e-008
*CLoad
pipe-1-1.203, 1, 0.141777
*CLoad
pipe-1-1.203, 2, -0.986147
*CLoad
pipe-1-1.203, 3, 6.74038e-008
*CLoad
pipe-1-1.204, 1, -0.141779
*CLoad
pipe-1-1.204, 2, -0.986146
*CLoad
pipe-1-1.204, 3, -6.82921e-008
*CLoad
pipe-1-1.205, 1, -0.414681
*CLoad
pipe-1-1.205, 2, -0.907002
*CLoad
pipe-1-1.205, 3, 3.40554e-008
*CLoad
pipe-1-1.206, 1, -0.650059
*CLoad
pipe-1-1.206, 2, -0.750878
*CLoad
pipe-1-1.206, 3, -1.32127e-009
*CLoad
pipe-1-1.207, 1, -0.840786
*CLoad
pipe-1-1.207, 2, -0.540811
*CLoad
pipe-1-1.207, 3, -4.5503e-008
*CLoad
pipe-1-1.208, 1, -0.956486
*CLoad
pipe-1-1.208, 2, -0.280412
*CLoad
pipe-1-1.208, 3, 2.14541e-008
*CLoad
pipe-1-1.209, 1, -0.993664
*CLoad
pipe-1-1.209, 2, -1.81331e-005
*CLoad
pipe-1-1.209, 3, 9.14122e-008
*CLoad
pipe-1-1.210, 1, -0.956711
*CLoad
pipe-1-1.210, 2, 0.280499
*CLoad
pipe-1-1.210, 3, -3.28297e-010
*CLoad
pipe-1-1.211, 1, -0.840561
*CLoad
pipe-1-1.211, 2, 0.540698
*CLoad
pipe-1-1.211, 3, -2.01585e-012
*CLoad
pipe-1-1.212, 1, -0.65013
*CLoad
pipe-1-1.212, 2, 0.750917
*CLoad
pipe-1-1.212, 3, 3.43005e-012
*CLoad
pipe-1-1.213, 1, -0.414683
*CLoad
pipe-1-1.213, 2, 0.907007
*CLoad
pipe-1-1.213, 3, 3.89136e-012
*CLoad
pipe-1-1.214, 1, -0.141779
*CLoad
pipe-1-1.214, 2, 0.986146
*CLoad
pipe-1-1.214, 3, 1.59481e-012
*CLoad
pipe-1-1.215, 1, 0.141777
*CLoad
pipe-1-1.215, 2, 0.986147
*CLoad
pipe-1-1.215, 3, 6.8025e-012
*CLoad
pipe-1-1.216, 1, 0.414686
*CLoad
pipe-1-1.216, 2, 0.907006
*CLoad
pipe-1-1.216, 3, -3.30838e-012
*CLoad
pipe-1-1.217, 1, 0.650128
*CLoad
pipe-1-1.217, 2, 0.750918
*CLoad
pipe-1-1.217, 3, -1.91382e-012
*CLoad
pipe-1-1.218, 1, 0.840563
*CLoad
pipe-1-1.218, 2, 0.540695
*CLoad
pipe-1-1.218, 3, 3.1208e-012
*CLoad
pipe-1-1.219, 1, 0.95671
*CLoad
pipe-1-1.219, 2, 0.280499
*CLoad
pipe-1-1.219, 3, -3.40395e-011
*CLoad
pipe-1-1.220, 1, 0.993664
*CLoad
pipe-1-1.220, 2, -1.89485e-005
*CLoad
pipe-1-1.220, 3, -5.9592e-008
*CLoad
pipe-1-1.221, 1, 0.956485
*CLoad
pipe-1-1.221, 2, -0.280411
*CLoad
pipe-1-1.221, 3, 7.86973e-009
*CLoad
pipe-1-1.222, 1, 0.840787
*CLoad
pipe-1-1.222, 2, -0.540808
*CLoad
pipe-1-1.222, 3, -1.52484e-008
*CLoad
pipe-1-1.223, 1, 0.650057
*CLoad
pipe-1-1.223, 2, -0.750879
*CLoad
pipe-1-1.223, 3, -2.73174e-009
*CLoad
pipe-1-1.224, 1, 0.414684
*CLoad
pipe-1-1.224, 2, -0.907001
*CLoad
pipe-1-1.224, 3, 1.05592e-008
*CLoad
pipe-1-1.225, 1, 0.141777
*CLoad
pipe-1-1.225, 2, -0.986147
*CLoad
pipe-1-1.225, 3, -2.25462e-008
*CLoad
pipe-1-1.226, 1, -0.141779
*CLoad
pipe-1-1.226, 2, -0.986146
*CLoad
pipe-1-1.226, 3, 2.28377e-008
*CLoad
pipe-1-1.227, 1, -0.414681
*CLoad
pipe-1-1.227, 2, -0.907002
*CLoad
pipe-1-1.227, 3, -1.13963e-008
*CLoad
pipe-1-1.228, 1, -0.650059
*CLoad
pipe-1-1.228, 2, -0.750877
*CLoad
pipe-1-1.228, 3, 3.76337e-010
*CLoad
pipe-1-1.229, 1, -0.840786
*CLoad
pipe-1-1.229, 2, -0.540812
*CLoad
pipe-1-1.229, 3, 1.51522e-008
*CLoad
pipe-1-1.230, 1, -0.956486
*CLoad
pipe-1-1.230, 2, -0.280412
*CLoad
pipe-1-1.230, 3, -7.13976e-009
*CLoad
pipe-1-1.231, 1, -0.993664
*CLoad
pipe-1-1.231, 2, -1.81685e-005
*CLoad
pipe-1-1.231, 3, 1.22998e-008
*CLoad
pipe-1-1.232, 1, -0.956711
*CLoad
pipe-1-1.232, 2, 0.280499
*CLoad
pipe-1-1.232, 3, -2.9385e-010
*CLoad
pipe-1-1.233, 1, -0.840561
*CLoad
pipe-1-1.233, 2, 0.540699
*CLoad
pipe-1-1.233, 3, -2.41961e-012
*CLoad
pipe-1-1.234, 1, -0.650129
*CLoad
pipe-1-1.234, 2, 0.750916
*CLoad
pipe-1-1.234, 3, 4.51372e-012
*CLoad
pipe-1-1.235, 1, -0.414683
*CLoad
pipe-1-1.235, 2, 0.907008
*CLoad
pipe-1-1.235, 3, 3.87614e-012
*CLoad
pipe-1-1.236, 1, -0.141779
*CLoad
pipe-1-1.236, 2, 0.986146
*CLoad
pipe-1-1.236, 3, 1.58868e-012
*CLoad
pipe-1-1.237, 1, 0.141777
*CLoad
pipe-1-1.237, 2, 0.986147
*CLoad
pipe-1-1.237, 3, 6.53789e-012
*CLoad
pipe-1-1.238, 1, 0.414686
*CLoad
pipe-1-1.238, 2, 0.907006
*CLoad
pipe-1-1.238, 3, -3.35653e-012
*CLoad
pipe-1-1.239, 1, 0.650127
*CLoad
pipe-1-1.239, 2, 0.750918
*CLoad
pipe-1-1.239, 3, -1.90793e-012
*CLoad
pipe-1-1.240, 1, 0.840563
*CLoad
pipe-1-1.240, 2, 0.540695
*CLoad
pipe-1-1.240, 3, 3.127e-012
*CLoad
pipe-1-1.241, 1, 0.95671
*CLoad
pipe-1-1.241, 2, 0.280499
*CLoad
pipe-1-1.241, 3, -2.96376e-011
*CLoad
pipe-1-1.242, 1, 0.993663
*CLoad
pipe-1-1.242, 2, -1.89526e-005
*CLoad
pipe-1-1.242, 3, 1.96836e-008
*CLoad
pipe-1-1.243, 1, 0.956485
*CLoad
pipe-1-1.243, 2, -0.280411
*CLoad
pipe-1-1.243, 3, 7.87658e-009
*CLoad
pipe-1-1.244, 1, 0.840787
*CLoad
pipe-1-1.244, 2, -0.540808
*CLoad
pipe-1-1.244, 3, -1.52532e-008
*CLoad
pipe-1-1.245, 1, 0.650057
*CLoad
pipe-1-1.245, 2, -0.750879
*CLoad
pipe-1-1.245, 3, -2.73255e-009
*CLoad
pipe-1-1.246, 1, 0.414684
*CLoad
pipe-1-1.246, 2, -0.907001
*CLoad
pipe-1-1.246, 3, 1.05626e-008
*CLoad
pipe-1-1.247, 1, 0.141777
*CLoad
pipe-1-1.247, 2, -0.986147
*CLoad
pipe-1-1.247, 3, -2.25533e-008
*CLoad
pipe-1-1.248, 1, -0.141779
*CLoad
pipe-1-1.248, 2, -0.986146
*CLoad
pipe-1-1.248, 3, 2.28449e-008
*CLoad
pipe-1-1.249, 1, -0.414681
*CLoad
pipe-1-1.249, 2, -0.907002
*CLoad
pipe-1-1.249, 3, -1.13998e-008
*CLoad
pipe-1-1.250, 1, -0.650059
*CLoad
pipe-1-1.250, 2, -0.750877
*CLoad
pipe-1-1.250, 3, 3.76465e-010
*CLoad
pipe-1-1.251, 1, -0.840786
*CLoad
pipe-1-1.251, 2, -0.540812
*CLoad
pipe-1-1.251, 3, 1.5157e-008
*CLoad
pipe-1-1.252, 1, -0.956486
*CLoad
pipe-1-1.252, 2, -0.280412
*CLoad
pipe-1-1.252, 3, -7.13717e-009
*CLoad
pipe-1-1.253, 1, -0.993664
*CLoad
pipe-1-1.253, 2, -1.81998e-005
*CLoad
pipe-1-1.253, 3, 1.2319e-008
*CLoad
pipe-1-1.254, 1, -0.956711
*CLoad
pipe-1-1.254, 2, 0.280499
*CLoad
pipe-1-1.254, 3, -3.1991e-010
*CLoad
pipe-1-1.255, 1, -0.840561
*CLoad
pipe-1-1.255, 2, 0.540699
*CLoad
pipe-1-1.255, 3, -1.38846e-012
*CLoad
pipe-1-1.256, 1, -0.650129
*CLoad
pipe-1-1.256, 2, 0.750916
*CLoad
pipe-1-1.256, 3, 3.05282e-012
*CLoad
pipe-1-1.257, 1, -0.414683
*CLoad
pipe-1-1.257, 2, 0.907008
*CLoad
pipe-1-1.257, 3, 3.89648e-012
*CLoad
pipe-1-1.258, 1, -0.141779
*CLoad
pipe-1-1.258, 2, 0.986146
*CLoad
pipe-1-1.258, 3, 1.4768e-012
*CLoad
pipe-1-1.259, 1, 0.141777
*CLoad
pipe-1-1.259, 2, 0.986147
*CLoad
pipe-1-1.259, 3, 3.65042e-012
*CLoad
pipe-1-1.260, 1, 0.414686
*CLoad
pipe-1-1.260, 2, 0.907006
*CLoad
pipe-1-1.260, 3, -3.45377e-012
*CLoad
pipe-1-1.261, 1, 0.650127
*CLoad
pipe-1-1.261, 2, 0.750918
*CLoad
pipe-1-1.261, 3, -1.91676e-012
*CLoad
pipe-1-1.262, 1, 0.840563
*CLoad
pipe-1-1.262, 2, 0.540695
*CLoad
pipe-1-1.262, 3, 3.15224e-012
*CLoad
pipe-1-1.263, 1, 0.95671
*CLoad
pipe-1-1.263, 2, 0.280499
*CLoad
pipe-1-1.263, 3, -2.45924e-011
*CLoad
pipe-1-1.264, 1, 0.993663
*CLoad
pipe-1-1.264, 2, -1.89526e-005
*CLoad
pipe-1-1.264, 3, 1.97073e-008
*CLoad
pipe-1-1.265, 1, 0.956485
*CLoad
pipe-1-1.265, 2, -0.280411
*CLoad
pipe-1-1.265, 3, -2.38586e-008
*CLoad
pipe-1-1.266, 1, 0.840787
*CLoad
pipe-1-1.266, 2, -0.540808
*CLoad
pipe-1-1.266, 3, 4.57929e-008
*CLoad
pipe-1-1.267, 1, 0.650057
*CLoad
pipe-1-1.267, 2, -0.75088
*CLoad
pipe-1-1.267, 3, 8.37918e-009
*CLoad
pipe-1-1.268, 1, 0.414684
*CLoad
pipe-1-1.268, 2, -0.907001
*CLoad
pipe-1-1.268, 3, -3.1546e-008
*CLoad
pipe-1-1.269, 1, 0.141777
*CLoad
pipe-1-1.269, 2, -0.986147
*CLoad
pipe-1-1.269, 3, 6.74109e-008
*CLoad
pipe-1-1.270, 1, -0.141779
*CLoad
pipe-1-1.270, 2, -0.986146
*CLoad
pipe-1-1.270, 3, -6.82993e-008
*CLoad
pipe-1-1.271, 1, -0.414681
*CLoad
pipe-1-1.271, 2, -0.907002
*CLoad
pipe-1-1.271, 3, 3.40591e-008
*CLoad
pipe-1-1.272, 1, -0.650059
*CLoad
pipe-1-1.272, 2, -0.750878
*CLoad
pipe-1-1.272, 3, -1.32148e-009
*CLoad
pipe-1-1.273, 1, -0.840786
*CLoad
pipe-1-1.273, 2, -0.540811
*CLoad
pipe-1-1.273, 3, -4.55076e-008
*CLoad
pipe-1-1.274, 1, -0.956486
*CLoad
pipe-1-1.274, 2, -0.280412
*CLoad
pipe-1-1.274, 3, 2.14701e-008
*CLoad
pipe-1-1.275, 1, -0.993665
*CLoad
pipe-1-1.275, 2, -1.82269e-005
*CLoad
pipe-1-1.275, 3, 9.15299e-008
*CLoad
pipe-1-1.276, 1, -0.956711
*CLoad
pipe-1-1.276, 2, 0.280499
*CLoad
pipe-1-1.276, 3, -2.76239e-010
*CLoad
pipe-1-1.277, 1, -0.840561
*CLoad
pipe-1-1.277, 2, 0.540698
*CLoad
pipe-1-1.277, 3, -1.91228e-012
*CLoad
pipe-1-1.278, 1, -0.65013
*CLoad
pipe-1-1.278, 2, 0.750917
*CLoad
pipe-1-1.278, 3, 3.03388e-012
*CLoad
pipe-1-1.279, 1, -0.414683
*CLoad
pipe-1-1.279, 2, 0.907007
*CLoad
pipe-1-1.279, 3, 3.88701e-012
*CLoad
pipe-1-1.280, 1, -0.141779
*CLoad
pipe-1-1.280, 2, 0.986146
*CLoad
pipe-1-1.280, 3, 1.01611e-012
*CLoad
pipe-1-1.281, 1, 0.141777
*CLoad
pipe-1-1.281, 2, 0.986147
*CLoad
pipe-1-1.281, 3, 6.34072e-012
*CLoad
pipe-1-1.282, 1, 0.414686
*CLoad
pipe-1-1.282, 2, 0.907006
*CLoad
pipe-1-1.282, 3, -3.31675e-012
*CLoad
pipe-1-1.283, 1, 0.650128
*CLoad
pipe-1-1.283, 2, 0.750918
*CLoad
pipe-1-1.283, 3, -1.92955e-012
*CLoad
pipe-1-1.284, 1, 0.840563
*CLoad
pipe-1-1.284, 2, 0.540695
*CLoad
pipe-1-1.284, 3, 3.24705e-012
*CLoad
pipe-1-1.285, 1, 0.95671
*CLoad
pipe-1-1.285, 2, 0.280499
*CLoad
pipe-1-1.285, 3, -1.96748e-011
*CLoad
pipe-1-1.286, 1, 0.993664
*CLoad
pipe-1-1.286, 2, -1.89483e-005
*CLoad
pipe-1-1.286, 3, -5.95466e-008
*CLoad
pipe-1-1.287, 1, 0.956485
*CLoad
pipe-1-1.287, 2, -0.280411
*CLoad
pipe-1-1.287, 3, 4.00983e-008
*CLoad
pipe-1-1.288, 1, 0.840787
*CLoad
pipe-1-1.288, 2, -0.540808
*CLoad
pipe-1-1.288, 3, -7.64578e-008
*CLoad
pipe-1-1.289, 1, 0.650058
*CLoad
pipe-1-1.289, 2, -0.750881
*CLoad
pipe-1-1.289, 3, -1.45664e-008
*CLoad
pipe-1-1.290, 1, 0.414684
*CLoad
pipe-1-1.290, 2, -0.907
*CLoad
pipe-1-1.290, 3, 5.20301e-008
*CLoad
pipe-1-1.291, 1, 0.141777
*CLoad
pipe-1-1.291, 2, -0.986147
*CLoad
pipe-1-1.291, 3, -1.1148e-007
*CLoad
pipe-1-1.292, 1, -0.141778
*CLoad
pipe-1-1.292, 2, -0.986146
*CLoad
pipe-1-1.292, 3, 1.12953e-007
*CLoad
pipe-1-1.293, 1, -0.414681
*CLoad
pipe-1-1.293, 2, -0.907002
*CLoad
pipe-1-1.293, 3, -5.6243e-008
*CLoad
pipe-1-1.294, 1, -0.65006
*CLoad
pipe-1-1.294, 2, -0.750879
*CLoad
pipe-1-1.294, 3, 2.82402e-009
*CLoad
pipe-1-1.295, 1, -0.840785
*CLoad
pipe-1-1.295, 2, -0.540811
*CLoad
pipe-1-1.295, 3, 7.59865e-008
*CLoad
pipe-1-1.296, 1, -0.956486
*CLoad
pipe-1-1.296, 2, -0.280412
*CLoad
pipe-1-1.296, 3, -3.62149e-008
*CLoad
pipe-1-1.297, 1, -0.993666
*CLoad
pipe-1-1.297, 2, -1.82481e-005
*CLoad
pipe-1-1.297, 3, -6.67862e-008
*CLoad
pipe-1-1.298, 1, -0.95671
*CLoad
pipe-1-1.298, 2, 0.2805
*CLoad
pipe-1-1.298, 3, -2.82716e-010
*CLoad
pipe-1-1.299, 1, -0.840561
*CLoad
pipe-1-1.299, 2, 0.540698
*CLoad
pipe-1-1.299, 3, -1.68713e-012
*CLoad
pipe-1-1.300, 1, -0.650131
*CLoad
pipe-1-1.300, 2, 0.750918
*CLoad
pipe-1-1.300, 3, 3.03834e-012
*CLoad
pipe-1-1.301, 1, -0.414683
*CLoad
pipe-1-1.301, 2, 0.907007
*CLoad
pipe-1-1.301, 3, 3.86126e-012
*CLoad
pipe-1-1.302, 1, -0.141779
*CLoad
pipe-1-1.302, 2, 0.986146
*CLoad
pipe-1-1.302, 3, 2.46013e-012
*CLoad
pipe-1-1.303, 1, 0.141777
*CLoad
pipe-1-1.303, 2, 0.986147
*CLoad
pipe-1-1.303, 3, 5.88607e-012
*CLoad
pipe-1-1.304, 1, 0.414686
*CLoad
pipe-1-1.304, 2, 0.907006
*CLoad
pipe-1-1.304, 3, -3.41564e-012
*CLoad
pipe-1-1.305, 1, 0.650129
*CLoad
pipe-1-1.305, 2, 0.750919
*CLoad
pipe-1-1.305, 3, -1.82988e-012
*CLoad
pipe-1-1.306, 1, 0.840562
*CLoad
pipe-1-1.306, 2, 0.540694
*CLoad
pipe-1-1.306, 3, 3.48044e-012
*CLoad
pipe-1-1.307, 1, 0.956709
*CLoad
pipe-1-1.307, 2, 0.280499
*CLoad
pipe-1-1.307, 3, -1.47205e-011
*CLoad
pipe-1-1.308, 1, 0.993665
*CLoad
pipe-1-1.308, 2, -1.89382e-005
*CLoad
pipe-1-1.308, 3, 9.90266e-008
*CLoad
pipe-1-1.309, 1, 0.956485
*CLoad
pipe-1-1.309, 2, -0.280411
*CLoad
pipe-1-1.309, 3, -5.57024e-008
*CLoad
pipe-1-1.310, 1, 0.840786
*CLoad
pipe-1-1.310, 2, -0.540807
*CLoad
pipe-1-1.310, 3, 1.07317e-007
*CLoad
pipe-1-1.311, 1, 0.65006
*CLoad
pipe-1-1.311, 2, -0.750882
*CLoad
pipe-1-1.311, 3, 2.16546e-008
*CLoad
pipe-1-1.312, 1, 0.414684
*CLoad
pipe-1-1.312, 2, -0.907
*CLoad
pipe-1-1.312, 3, -7.12876e-008
*CLoad
pipe-1-1.313, 1, 0.141776
*CLoad
pipe-1-1.313, 2, -0.986147
*CLoad
pipe-1-1.313, 3, 1.5383e-007
*CLoad
pipe-1-1.314, 1, -0.141778
*CLoad
pipe-1-1.314, 2, -0.986146
*CLoad
pipe-1-1.314, 3, -1.55901e-007
*CLoad
pipe-1-1.315, 1, -0.414681
*CLoad
pipe-1-1.315, 2, -0.907001
*CLoad
pipe-1-1.315, 3, 7.72276e-008
*CLoad
pipe-1-1.316, 1, -0.650062
*CLoad
pipe-1-1.316, 2, -0.750881
*CLoad
pipe-1-1.316, 3, -5.26428e-009
*CLoad
pipe-1-1.317, 1, -0.840784
*CLoad
pipe-1-1.317, 2, -0.54081
*CLoad
pipe-1-1.317, 3, -1.06669e-007
*CLoad
pipe-1-1.318, 1, -0.956485
*CLoad
pipe-1-1.318, 2, -0.280413
*CLoad
pipe-1-1.318, 3, 5.28308e-008
*CLoad
pipe-1-1.319, 1, -0.993667
*CLoad
pipe-1-1.319, 2, -1.82583e-005
*CLoad
pipe-1-1.319, 3, 1.77329e-007
*CLoad
pipe-1-1.320, 1, -0.95671
*CLoad
pipe-1-1.320, 2, 0.2805
*CLoad
pipe-1-1.320, 3, 1.02278e-009
*CLoad
pipe-1-1.321, 1, -0.84056
*CLoad
pipe-1-1.321, 2, 0.540697
*CLoad
pipe-1-1.321, 3, -1.49334e-012
*CLoad
pipe-1-1.322, 1, -0.650132
*CLoad
pipe-1-1.322, 2, 0.750919
*CLoad
pipe-1-1.322, 3, 3.01358e-012
*CLoad
pipe-1-1.323, 1, -0.414683
*CLoad
pipe-1-1.323, 2, 0.907007
*CLoad
pipe-1-1.323, 3, 3.87633e-012
*CLoad
pipe-1-1.324, 1, -0.141778
*CLoad
pipe-1-1.324, 2, 0.986146
*CLoad
pipe-1-1.324, 3, 1.61235e-012
*CLoad
pipe-1-1.325, 1, 0.141777
*CLoad
pipe-1-1.325, 2, 0.986147
*CLoad
pipe-1-1.325, 3, 7.22945e-012
*CLoad
pipe-1-1.326, 1, 0.414686
*CLoad
pipe-1-1.326, 2, 0.907005
*CLoad
pipe-1-1.326, 3, -3.37001e-012
*CLoad
pipe-1-1.327, 1, 0.65013
*CLoad
pipe-1-1.327, 2, 0.750921
*CLoad
pipe-1-1.327, 3, -1.83409e-012
*CLoad
pipe-1-1.328, 1, 0.840562
*CLoad
pipe-1-1.328, 2, 0.540694
*CLoad
pipe-1-1.328, 3, 3.44766e-012
*CLoad
pipe-1-1.329, 1, 0.956709
*CLoad
pipe-1-1.329, 2, 0.280499
*CLoad
pipe-1-1.329, 3, 1.28245e-009
*CLoad
pipe-1-1.330, 1, 0.993667
*CLoad
pipe-1-1.330, 2, -1.89171e-005
*CLoad
pipe-1-1.330, 3, -1.3242e-007
*CLoad
pipe-1-1.331, 1, 0.956485
*CLoad
pipe-1-1.331, 2, -0.280412
*CLoad
pipe-1-1.331, 3, 7.30888e-008
*CLoad
pipe-1-1.332, 1, 0.840785
*CLoad
pipe-1-1.332, 2, -0.540806
*CLoad
pipe-1-1.332, 3, -1.38442e-007
*CLoad
pipe-1-1.333, 1, 0.650061
*CLoad
pipe-1-1.333, 2, -0.750884
*CLoad
pipe-1-1.333, 3, -2.99933e-008
*CLoad
pipe-1-1.334, 1, 0.414684
*CLoad
pipe-1-1.334, 2, -0.906999
*CLoad
pipe-1-1.334, 3, 8.7785e-008
*CLoad
pipe-1-1.335, 1, 0.141775
*CLoad
pipe-1-1.335, 2, -0.986147
*CLoad
pipe-1-1.335, 3, -1.92747e-007
*CLoad
pipe-1-1.336, 1, -0.141777
*CLoad
pipe-1-1.336, 2, -0.986146
*CLoad
pipe-1-1.336, 3, 1.95407e-007
*CLoad
pipe-1-1.337, 1, -0.414681
*CLoad
pipe-1-1.337, 2, -0.907
*CLoad
pipe-1-1.337, 3, -9.55021e-008
*CLoad
pipe-1-1.338, 1, -0.650063
*CLoad
pipe-1-1.338, 2, -0.750883
*CLoad
pipe-1-1.338, 3, 8.99833e-009
*CLoad
pipe-1-1.339, 1, -0.840783
*CLoad
pipe-1-1.339, 2, -0.540809
*CLoad
pipe-1-1.339, 3, 1.37626e-007
*CLoad
pipe-1-1.340, 1, -0.956486
*CLoad
pipe-1-1.340, 2, -0.280413
*CLoad
pipe-1-1.340, 3, -6.91128e-008
*CLoad
pipe-1-1.341, 1, -0.993668
*CLoad
pipe-1-1.341, 2, -1.82462e-005
*CLoad
pipe-1-1.341, 3, -1.54745e-007
*CLoad
pipe-1-1.342, 1, -0.95671
*CLoad
pipe-1-1.342, 2, 0.280501
*CLoad
pipe-1-1.342, 3, -1.78391e-009
*CLoad
pipe-1-1.343, 1, -0.840559
*CLoad
pipe-1-1.343, 2, 0.540696
*CLoad
pipe-1-1.343, 3, -1.50276e-012
*CLoad
pipe-1-1.344, 1, -0.650134
*CLoad
pipe-1-1.344, 2, 0.750921
*CLoad
pipe-1-1.344, 3, 3.04575e-012
*CLoad
pipe-1-1.345, 1, -0.414683
*CLoad
pipe-1-1.345, 2, 0.907006
*CLoad
pipe-1-1.345, 3, 3.89753e-012
*CLoad
pipe-1-1.346, 1, -0.141777
*CLoad
pipe-1-1.346, 2, 0.986146
*CLoad
pipe-1-1.346, 3, 1.36029e-012
*CLoad
pipe-1-1.347, 1, 0.141776
*CLoad
pipe-1-1.347, 2, 0.986146
*CLoad
pipe-1-1.347, 3, 6.63494e-012
*CLoad
pipe-1-1.348, 1, 0.414686
*CLoad
pipe-1-1.348, 2, 0.907005
*CLoad
pipe-1-1.348, 3, -3.31895e-012
*CLoad
pipe-1-1.349, 1, 0.650132
*CLoad
pipe-1-1.349, 2, 0.750923
*CLoad
pipe-1-1.349, 3, -1.92498e-012
*CLoad
pipe-1-1.350, 1, 0.840561
*CLoad
pipe-1-1.350, 2, 0.540693
*CLoad
pipe-1-1.350, 3, 3.13763e-012
*CLoad
pipe-1-1.351, 1, 0.956709
*CLoad
pipe-1-1.351, 2, 0.2805
*CLoad
pipe-1-1.351, 3, -1.49346e-009
*CLoad
pipe-1-1.352, 1, 0.993667
*CLoad
pipe-1-1.352, 2, -1.88739e-005
*CLoad
pipe-1-1.352, 3, 1.70012e-007
*CLoad
pipe-1-1.353, 1, 0.956488
*CLoad
pipe-1-1.353, 2, -0.280414
*CLoad
pipe-1-1.353, 3, -9.40507e-008
*CLoad
pipe-1-1.354, 1, 0.840784
*CLoad
pipe-1-1.354, 2, -0.540805
*CLoad
pipe-1-1.354, 3, 1.69847e-007
*CLoad
pipe-1-1.355, 1, 0.650064
*CLoad
pipe-1-1.355, 2, -0.750887
*CLoad
pipe-1-1.355, 3, 3.99574e-008
*CLoad
pipe-1-1.356, 1, 0.414684
*CLoad
pipe-1-1.356, 2, -0.906997
*CLoad
pipe-1-1.356, 3, -9.83339e-008
*CLoad
pipe-1-1.357, 1, 0.141774
*CLoad
pipe-1-1.357, 2, -0.986147
*CLoad
pipe-1-1.357, 3, 2.24854e-007
*CLoad
pipe-1-1.358, 1, -0.141776
*CLoad
pipe-1-1.358, 2, -0.986147
*CLoad
pipe-1-1.358, 3, -2.28118e-007
*CLoad
pipe-1-1.359, 1, -0.414681
*CLoad
pipe-1-1.359, 2, -0.906999
*CLoad
pipe-1-1.359, 3, 1.07882e-007
*CLoad
pipe-1-1.360, 1, -0.650066
*CLoad
pipe-1-1.360, 2, -0.750885
*CLoad
pipe-1-1.360, 3, -1.44207e-008
*CLoad
pipe-1-1.361, 1, -0.840782
*CLoad
pipe-1-1.361, 2, -0.540808
*CLoad
pipe-1-1.361, 3, -1.68876e-007
*CLoad
pipe-1-1.362, 1, -0.956489
*CLoad
pipe-1-1.362, 2, -0.280415
*CLoad
pipe-1-1.362, 3, 8.34366e-008
*CLoad
pipe-1-1.363, 1, -0.993662
*CLoad
pipe-1-1.363, 2, -1.82197e-005
*CLoad
pipe-1-1.363, 3, 2.4737e-007
*CLoad
pipe-1-1.364, 1, -0.956713
*CLoad
pipe-1-1.364, 2, 0.280502
*CLoad
pipe-1-1.364, 3, -1.31468e-009
*CLoad
pipe-1-1.365, 1, -0.840558
*CLoad
pipe-1-1.365, 2, 0.540695
*CLoad
pipe-1-1.365, 3, -1.4191e-012
*CLoad
pipe-1-1.366, 1, -0.650136
*CLoad
pipe-1-1.366, 2, 0.750923
*CLoad
pipe-1-1.366, 3, 3.04169e-012
*CLoad
pipe-1-1.367, 1, -0.414684
*CLoad
pipe-1-1.367, 2, 0.907005
*CLoad
pipe-1-1.367, 3, 3.89125e-012
*CLoad
pipe-1-1.368, 1, -0.141776
*CLoad
pipe-1-1.368, 2, 0.986146
*CLoad
pipe-1-1.368, 3, 1.042e-012
*CLoad
pipe-1-1.369, 1, 0.141774
*CLoad
pipe-1-1.369, 2, 0.986147
*CLoad
pipe-1-1.369, 3, 6.35913e-012
*CLoad
pipe-1-1.370, 1, 0.414686
*CLoad
pipe-1-1.370, 2, 0.907003
*CLoad
pipe-1-1.370, 3, -3.31875e-012
*CLoad
pipe-1-1.371, 1, 0.650134
*CLoad
pipe-1-1.371, 2, 0.750925
*CLoad
pipe-1-1.371, 3, -1.99146e-012
*CLoad
pipe-1-1.372, 1, 0.84056
*CLoad
pipe-1-1.372, 2, 0.540692
*CLoad
pipe-1-1.372, 3, 3.132e-012
*CLoad
pipe-1-1.373, 1, 0.956712
*CLoad
pipe-1-1.373, 2, 0.280502
*CLoad
pipe-1-1.373, 3, -1.08073e-009
*CLoad
pipe-1-1.374, 1, 0.993662
*CLoad
pipe-1-1.374, 2, -1.88162e-005
*CLoad
pipe-1-1.374, 3, -2.21808e-007
*CLoad
pipe-1-1.375, 1, 0.956928
*CLoad
pipe-1-1.375, 2, -0.280548
*CLoad
pipe-1-1.375, 3, 1.73107e-007
*CLoad
pipe-1-1.376, 1, 0.841142
*CLoad
pipe-1-1.376, 2, -0.541028
*CLoad
pipe-1-1.376, 3, -2.81677e-007
*CLoad
pipe-1-1.377, 1, 0.6504
*CLoad
pipe-1-1.377, 2, -0.751264
*CLoad
pipe-1-1.377, 3, -1.50267e-008
*CLoad
pipe-1-1.378, 1, 0.414872
*CLoad
pipe-1-1.378, 2, -0.907414
*CLoad
pipe-1-1.378, 3, 8.67983e-008
*CLoad
pipe-1-1.379, 1, 0.141841
*CLoad
pipe-1-1.379, 2, -0.986607
*CLoad
pipe-1-1.379, 3, -2.33238e-007
*CLoad
pipe-1-1.380, 1, -0.141843
*CLoad
pipe-1-1.380, 2, -0.986607
*CLoad
pipe-1-1.380, 3, 2.37331e-007
*CLoad
pipe-1-1.381, 1, -0.414869
*CLoad
pipe-1-1.381, 2, -0.907416
*CLoad
pipe-1-1.381, 3, -1.01468e-007
*CLoad
pipe-1-1.382, 1, -0.650402
*CLoad
pipe-1-1.382, 2, -0.751262
*CLoad
pipe-1-1.382, 3, -1.0423e-008
*CLoad
pipe-1-1.383, 1, -0.84114
*CLoad
pipe-1-1.383, 2, -0.541032
*CLoad
pipe-1-1.383, 3, 2.81018e-007
*CLoad
pipe-1-1.384, 1, -0.956929
*CLoad
pipe-1-1.384, 2, -0.280549
*CLoad
pipe-1-1.384, 3, -1.62996e-007
*CLoad
pipe-1-1.385, 1, -0.994151
*CLoad
pipe-1-1.385, 2, -1.80927e-005
*CLoad
pipe-1-1.385, 3, -1.97916e-007
*CLoad
pipe-1-1.386, 1, -0.957151
*CLoad
pipe-1-1.386, 2, 0.280636
*CLoad
pipe-1-1.386, 3, 3.25773e-010
*CLoad
pipe-1-1.387, 1, -0.84092
*CLoad
pipe-1-1.387, 2, 0.540921
*CLoad
pipe-1-1.387, 3, -1.43619e-012
*CLoad
pipe-1-1.388, 1, -0.65047
*CLoad
pipe-1-1.388, 2, 0.7513
*CLoad
pipe-1-1.388, 3, 3.0388e-012
*CLoad
pipe-1-1.389, 1, -0.414871
*CLoad
pipe-1-1.389, 2, 0.907421
*CLoad
pipe-1-1.389, 3, 3.90113e-012
*CLoad
pipe-1-1.390, 1, -0.141843
*CLoad
pipe-1-1.390, 2, 0.986607
*CLoad
pipe-1-1.390, 3, 1.54584e-012
*CLoad
pipe-1-1.391, 1, 0.141841
*CLoad
pipe-1-1.391, 2, 0.986607
*CLoad
pipe-1-1.391, 3, 6.56816e-012
*CLoad
pipe-1-1.392, 1, 0.414874
*CLoad
pipe-1-1.392, 2, 0.90742
*CLoad
pipe-1-1.392, 3, -3.3139e-012
*CLoad
pipe-1-1.393, 1, 0.650468
*CLoad
pipe-1-1.393, 2, 0.751301
*CLoad
pipe-1-1.393, 3, -3.79081e-012
*CLoad
pipe-1-1.394, 1, 0.840922
*CLoad
pipe-1-1.394, 2, 0.540917
*CLoad
pipe-1-1.394, 3, 6.04065e-012
*CLoad
pipe-1-1.395, 1, 0.95715
*CLoad
pipe-1-1.395, 2, 0.280635
*CLoad
pipe-1-1.395, 3, 6.12001e-010
*CLoad
pipe-1-1.396, 1, 0.99415
*CLoad
pipe-1-1.396, 2, -1.86525e-005
*CLoad
pipe-1-1.396, 3, 2.54012e-007
*CLoad
pipe-1-1.397, 1, 0.956928
*CLoad
pipe-1-1.397, 2, -0.280548
*CLoad
pipe-1-1.397, 3, -1.73121e-007
*CLoad
pipe-1-1.398, 1, 0.841142
*CLoad
pipe-1-1.398, 2, -0.541028
*CLoad
pipe-1-1.398, 3, 2.81674e-007
*CLoad
pipe-1-1.399, 1, 0.6504
*CLoad
pipe-1-1.399, 2, -0.751264
*CLoad
pipe-1-1.399, 3, 1.50267e-008
*CLoad
pipe-1-1.400, 1, 0.414872
*CLoad
pipe-1-1.400, 2, -0.907414
*CLoad
pipe-1-1.400, 3, -8.67963e-008
*CLoad
pipe-1-1.401, 1, 0.141841
*CLoad
pipe-1-1.401, 2, -0.986607
*CLoad
pipe-1-1.401, 3, 2.33233e-007
*CLoad
pipe-1-1.402, 1, -0.141843
*CLoad
pipe-1-1.402, 2, -0.986607
*CLoad
pipe-1-1.402, 3, -2.37332e-007
*CLoad
pipe-1-1.403, 1, -0.414869
*CLoad
pipe-1-1.403, 2, -0.907416
*CLoad
pipe-1-1.403, 3, 1.01464e-007
*CLoad
pipe-1-1.404, 1, -0.650402
*CLoad
pipe-1-1.404, 2, -0.751262
*CLoad
pipe-1-1.404, 3, 1.04211e-008
*CLoad
pipe-1-1.405, 1, -0.84114
*CLoad
pipe-1-1.405, 2, -0.541032
*CLoad
pipe-1-1.405, 3, -2.81015e-007
*CLoad
pipe-1-1.406, 1, -0.956929
*CLoad
pipe-1-1.406, 2, -0.280549
*CLoad
pipe-1-1.406, 3, 1.63004e-007
*CLoad
pipe-1-1.407, 1, -0.99415
*CLoad
pipe-1-1.407, 2, -1.81238e-005
*CLoad
pipe-1-1.407, 3, 2.62816e-007
*CLoad
pipe-1-1.408, 1, -0.957151
*CLoad
pipe-1-1.408, 2, 0.280636
*CLoad
pipe-1-1.408, 3, -9.22938e-010
*CLoad
pipe-1-1.409, 1, -0.84092
*CLoad
pipe-1-1.409, 2, 0.540921
*CLoad
pipe-1-1.409, 3, -1.46018e-012
*CLoad
pipe-1-1.410, 1, -0.65047
*CLoad
pipe-1-1.410, 2, 0.7513
*CLoad
pipe-1-1.410, 3, 3.03835e-012
*CLoad
pipe-1-1.411, 1, -0.414871
*CLoad
pipe-1-1.411, 2, 0.907421
*CLoad
pipe-1-1.411, 3, 3.90107e-012
*CLoad
pipe-1-1.412, 1, -0.141843
*CLoad
pipe-1-1.412, 2, 0.986607
*CLoad
pipe-1-1.412, 3, 1.61705e-012
*CLoad
pipe-1-1.413, 1, 0.141841
*CLoad
pipe-1-1.413, 2, 0.986607
*CLoad
pipe-1-1.413, 3, 6.63332e-012
*CLoad
pipe-1-1.414, 1, 0.414874
*CLoad
pipe-1-1.414, 2, 0.90742
*CLoad
pipe-1-1.414, 3, -3.31213e-012
*CLoad
pipe-1-1.415, 1, 0.650468
*CLoad
pipe-1-1.415, 2, 0.751301
*CLoad
pipe-1-1.415, 3, -1.94112e-012
*CLoad
pipe-1-1.416, 1, 0.840921
*CLoad
pipe-1-1.416, 2, 0.540917
*CLoad
pipe-1-1.416, 3, 2.99226e-012
*CLoad
pipe-1-1.417, 1, 0.95715
*CLoad
pipe-1-1.417, 2, 0.280635
*CLoad
pipe-1-1.417, 3, -6.19482e-010
*CLoad
pipe-1-1.418, 1, 0.99415
*CLoad
pipe-1-1.418, 2, -1.86525e-005
*CLoad
pipe-1-1.418, 3, -2.5394e-007
*CLoad
pipe-1-1.419, 1, 0.956488
*CLoad
pipe-1-1.419, 2, -0.280414
*CLoad
pipe-1-1.419, 3, 9.40609e-008
*CLoad
pipe-1-1.420, 1, 0.840784
*CLoad
pipe-1-1.420, 2, -0.540805
*CLoad
pipe-1-1.420, 3, -1.69844e-007
*CLoad
pipe-1-1.421, 1, 0.650064
*CLoad
pipe-1-1.421, 2, -0.750887
*CLoad
pipe-1-1.421, 3, -3.99551e-008
*CLoad
pipe-1-1.422, 1, 0.414684
*CLoad
pipe-1-1.422, 2, -0.906997
*CLoad
pipe-1-1.422, 3, 9.8335e-008
*CLoad
pipe-1-1.423, 1, 0.141774
*CLoad
pipe-1-1.423, 2, -0.986147
*CLoad
pipe-1-1.423, 3, -2.24855e-007
*CLoad
pipe-1-1.424, 1, -0.141776
*CLoad
pipe-1-1.424, 2, -0.986147
*CLoad
pipe-1-1.424, 3, 2.28113e-007
*CLoad
pipe-1-1.425, 1, -0.414681
*CLoad
pipe-1-1.425, 2, -0.906999
*CLoad
pipe-1-1.425, 3, -1.07885e-007
*CLoad
pipe-1-1.426, 1, -0.650066
*CLoad
pipe-1-1.426, 2, -0.750885
*CLoad
pipe-1-1.426, 3, 1.44177e-008
*CLoad
pipe-1-1.427, 1, -0.840782
*CLoad
pipe-1-1.427, 2, -0.540808
*CLoad
pipe-1-1.427, 3, 1.68873e-007
*CLoad
pipe-1-1.428, 1, -0.956489
*CLoad
pipe-1-1.428, 2, -0.280415
*CLoad
pipe-1-1.428, 3, -8.33957e-008
*CLoad
pipe-1-1.429, 1, -0.993662
*CLoad
pipe-1-1.429, 2, -1.83135e-005
*CLoad
pipe-1-1.429, 3, -1.82633e-007
*CLoad
pipe-1-1.430, 1, -0.956713
*CLoad
pipe-1-1.430, 2, 0.280502
*CLoad
pipe-1-1.430, 3, 9.04296e-010
*CLoad
pipe-1-1.431, 1, -0.840558
*CLoad
pipe-1-1.431, 2, 0.540695
*CLoad
pipe-1-1.431, 3, -1.44031e-012
*CLoad
pipe-1-1.432, 1, -0.650136
*CLoad
pipe-1-1.432, 2, 0.750923
*CLoad
pipe-1-1.432, 3, 3.04163e-012
*CLoad
pipe-1-1.433, 1, -0.414684
*CLoad
pipe-1-1.433, 2, 0.907005
*CLoad
pipe-1-1.433, 3, 3.89111e-012
*CLoad
pipe-1-1.434, 1, -0.141776
*CLoad
pipe-1-1.434, 2, 0.986146
*CLoad
pipe-1-1.434, 3, 1.62504e-012
*CLoad
pipe-1-1.435, 1, 0.141774
*CLoad
pipe-1-1.435, 2, 0.986147
*CLoad
pipe-1-1.435, 3, 6.9268e-012
*CLoad
pipe-1-1.436, 1, 0.414686
*CLoad
pipe-1-1.436, 2, 0.907003
*CLoad
pipe-1-1.436, 3, -3.31871e-012
*CLoad
pipe-1-1.437, 1, 0.650134
*CLoad
pipe-1-1.437, 2, 0.750925
*CLoad
pipe-1-1.437, 3, -1.9298e-012
*CLoad
pipe-1-1.438, 1, 0.84056
*CLoad
pipe-1-1.438, 2, 0.540692
*CLoad
pipe-1-1.438, 3, 2.42666e-012
*CLoad
pipe-1-1.439, 1, 0.956712
*CLoad
pipe-1-1.439, 2, 0.280502
*CLoad
pipe-1-1.439, 3, 1.10218e-009
*CLoad
pipe-1-1.440, 1, 0.993662
*CLoad
pipe-1-1.440, 2, -1.88163e-005
*CLoad
pipe-1-1.440, 3, 2.2174e-007
*CLoad
pipe-1-1.441, 1, 0.956485
*CLoad
pipe-1-1.441, 2, -0.280412
*CLoad
pipe-1-1.441, 3, -7.30882e-008
*CLoad
pipe-1-1.442, 1, 0.840785
*CLoad
pipe-1-1.442, 2, -0.540806
*CLoad
pipe-1-1.442, 3, 1.38437e-007
*CLoad
pipe-1-1.443, 1, 0.650061
*CLoad
pipe-1-1.443, 2, -0.750884
*CLoad
pipe-1-1.443, 3, 2.99928e-008
*CLoad
pipe-1-1.444, 1, 0.414684
*CLoad
pipe-1-1.444, 2, -0.906999
*CLoad
pipe-1-1.444, 3, -8.77815e-008
*CLoad
pipe-1-1.445, 1, 0.141775
*CLoad
pipe-1-1.445, 2, -0.986147
*CLoad
pipe-1-1.445, 3, 1.92738e-007
*CLoad
pipe-1-1.446, 1, -0.141777
*CLoad
pipe-1-1.446, 2, -0.986146
*CLoad
pipe-1-1.446, 3, -1.95405e-007
*CLoad
pipe-1-1.447, 1, -0.414681
*CLoad
pipe-1-1.447, 2, -0.907
*CLoad
pipe-1-1.447, 3, 9.54959e-008
*CLoad
pipe-1-1.448, 1, -0.650063
*CLoad
pipe-1-1.448, 2, -0.750883
*CLoad
pipe-1-1.448, 3, -9.00027e-009
*CLoad
pipe-1-1.449, 1, -0.840783
*CLoad
pipe-1-1.449, 2, -0.540809
*CLoad
pipe-1-1.449, 3, -1.37621e-007
*CLoad
pipe-1-1.450, 1, -0.956486
*CLoad
pipe-1-1.450, 2, -0.280413
*CLoad
pipe-1-1.450, 3, 6.91343e-008
*CLoad
pipe-1-1.451, 1, -0.993668
*CLoad
pipe-1-1.451, 2, -1.84028e-005
*CLoad
pipe-1-1.451, 3, 2.19273e-007
*CLoad
pipe-1-1.452, 1, -0.95671
*CLoad
pipe-1-1.452, 2, 0.280501
*CLoad
pipe-1-1.452, 3, 1.26782e-009
*CLoad
pipe-1-1.453, 1, -0.840559
*CLoad
pipe-1-1.453, 2, 0.540696
*CLoad
pipe-1-1.453, 3, -1.41829e-012
*CLoad
pipe-1-1.454, 1, -0.650134
*CLoad
pipe-1-1.454, 2, 0.750921
*CLoad
pipe-1-1.454, 3, 3.04583e-012
*CLoad
pipe-1-1.455, 1, -0.414683
*CLoad
pipe-1-1.455, 2, 0.907006
*CLoad
pipe-1-1.455, 3, 3.89742e-012
*CLoad
pipe-1-1.456, 1, -0.141777
*CLoad
pipe-1-1.456, 2, 0.986146
*CLoad
pipe-1-1.456, 3, 1.01063e-012
*CLoad
pipe-1-1.457, 1, 0.141776
*CLoad
pipe-1-1.457, 2, 0.986146
*CLoad
pipe-1-1.457, 3, 6.33311e-012
*CLoad
pipe-1-1.458, 1, 0.414686
*CLoad
pipe-1-1.458, 2, 0.907005
*CLoad
pipe-1-1.458, 3, -3.31871e-012
*CLoad
pipe-1-1.459, 1, 0.650132
*CLoad
pipe-1-1.459, 2, 0.750923
*CLoad
pipe-1-1.459, 3, -1.92503e-012
*CLoad
pipe-1-1.460, 1, 0.840561
*CLoad
pipe-1-1.460, 2, 0.540693
*CLoad
pipe-1-1.460, 3, 3.13789e-012
*CLoad
pipe-1-1.461, 1, 0.956709
*CLoad
pipe-1-1.461, 2, 0.2805
*CLoad
pipe-1-1.461, 3, 1.49971e-009
*CLoad
pipe-1-1.462, 1, 0.993667
*CLoad
pipe-1-1.462, 2, -1.88741e-005
*CLoad
pipe-1-1.462, 3, -1.70004e-007
*CLoad
pipe-1-1.463, 1, 0.956485
*CLoad
pipe-1-1.463, 2, -0.280411
*CLoad
pipe-1-1.463, 3, 5.56987e-008
*CLoad
pipe-1-1.464, 1, 0.840786
*CLoad
pipe-1-1.464, 2, -0.540807
*CLoad
pipe-1-1.464, 3, -1.07315e-007
*CLoad
pipe-1-1.465, 1, 0.65006
*CLoad
pipe-1-1.465, 2, -0.750882
*CLoad
pipe-1-1.465, 3, -2.16528e-008
*CLoad
pipe-1-1.466, 1, 0.414684
*CLoad
pipe-1-1.466, 2, -0.907
*CLoad
pipe-1-1.466, 3, 7.12871e-008
*CLoad
pipe-1-1.467, 1, 0.141776
*CLoad
pipe-1-1.467, 2, -0.986147
*CLoad
pipe-1-1.467, 3, -1.53829e-007
*CLoad
pipe-1-1.468, 1, -0.141778
*CLoad
pipe-1-1.468, 2, -0.986146
*CLoad
pipe-1-1.468, 3, 1.55894e-007
*CLoad
pipe-1-1.469, 1, -0.414681
*CLoad
pipe-1-1.469, 2, -0.907001
*CLoad
pipe-1-1.469, 3, -7.72289e-008
*CLoad
pipe-1-1.470, 1, -0.650062
*CLoad
pipe-1-1.470, 2, -0.750881
*CLoad
pipe-1-1.470, 3, 5.26185e-009
*CLoad
pipe-1-1.471, 1, -0.840784
*CLoad
pipe-1-1.471, 2, -0.54081
*CLoad
pipe-1-1.471, 3, 1.06666e-007
*CLoad
pipe-1-1.472, 1, -0.956485
*CLoad
pipe-1-1.472, 2, -0.280413
*CLoad
pipe-1-1.472, 3, -5.2805e-008
*CLoad
pipe-1-1.473, 1, -0.993667
*CLoad
pipe-1-1.473, 2, -1.84776e-005
*CLoad
pipe-1-1.473, 3, -1.12668e-007
*CLoad
pipe-1-1.474, 1, -0.95671
*CLoad
pipe-1-1.474, 2, 0.2805
*CLoad
pipe-1-1.474, 3, -1.51117e-009
*CLoad
pipe-1-1.475, 1, -0.84056
*CLoad
pipe-1-1.475, 2, 0.540697
*CLoad
pipe-1-1.475, 3, -1.43269e-012
*CLoad
pipe-1-1.476, 1, -0.650132
*CLoad
pipe-1-1.476, 2, 0.750919
*CLoad
pipe-1-1.476, 3, 3.01321e-012
*CLoad
pipe-1-1.477, 1, -0.414683
*CLoad
pipe-1-1.477, 2, 0.907007
*CLoad
pipe-1-1.477, 3, 3.88205e-012
*CLoad
pipe-1-1.478, 1, -0.141778
*CLoad
pipe-1-1.478, 2, 0.986146
*CLoad
pipe-1-1.478, 3, 1.57308e-012
*CLoad
pipe-1-1.479, 1, 0.141777
*CLoad
pipe-1-1.479, 2, 0.986147
*CLoad
pipe-1-1.479, 3, 6.61032e-012
*CLoad
pipe-1-1.480, 1, 0.414686
*CLoad
pipe-1-1.480, 2, 0.907005
*CLoad
pipe-1-1.480, 3, -3.30398e-012
*CLoad
pipe-1-1.481, 1, 0.65013
*CLoad
pipe-1-1.481, 2, 0.750921
*CLoad
pipe-1-1.481, 3, -1.90599e-012
*CLoad
pipe-1-1.482, 1, 0.840562
*CLoad
pipe-1-1.482, 2, 0.540694
*CLoad
pipe-1-1.482, 3, 3.12724e-012
*CLoad
pipe-1-1.483, 1, 0.956709
*CLoad
pipe-1-1.483, 2, 0.280499
*CLoad
pipe-1-1.483, 3, -1.27532e-009
*CLoad
pipe-1-1.484, 1, 0.993667
*CLoad
pipe-1-1.484, 2, -1.89174e-005
*CLoad
pipe-1-1.484, 3, 1.32419e-007
*CLoad
pipe-1-1.485, 1, 0.956485
*CLoad
pipe-1-1.485, 2, -0.280411
*CLoad
pipe-1-1.485, 3, -4.00977e-008
*CLoad
pipe-1-1.486, 1, 0.840787
*CLoad
pipe-1-1.486, 2, -0.540807
*CLoad
pipe-1-1.486, 3, 7.64522e-008
*CLoad
pipe-1-1.487, 1, 0.650058
*CLoad
pipe-1-1.487, 2, -0.750881
*CLoad
pipe-1-1.487, 3, 1.45662e-008
*CLoad
pipe-1-1.488, 1, 0.414684
*CLoad
pipe-1-1.488, 2, -0.907
*CLoad
pipe-1-1.488, 3, -5.20259e-008
*CLoad
pipe-1-1.489, 1, 0.141777
*CLoad
pipe-1-1.489, 2, -0.986147
*CLoad
pipe-1-1.489, 3, 1.1147e-007
*CLoad
pipe-1-1.490, 1, -0.141778
*CLoad
pipe-1-1.490, 2, -0.986146
*CLoad
pipe-1-1.490, 3, -1.12949e-007
*CLoad
pipe-1-1.491, 1, -0.414681
*CLoad
pipe-1-1.491, 2, -0.907002
*CLoad
pipe-1-1.491, 3, 5.62359e-008
*CLoad
pipe-1-1.492, 1, -0.65006
*CLoad
pipe-1-1.492, 2, -0.750879
*CLoad
pipe-1-1.492, 3, -2.8263e-009
*CLoad
pipe-1-1.493, 1, -0.840785
*CLoad
pipe-1-1.493, 2, -0.540811
*CLoad
pipe-1-1.493, 3, -7.5982e-008
*CLoad
pipe-1-1.494, 1, -0.956486
*CLoad
pipe-1-1.494, 2, -0.280412
*CLoad
pipe-1-1.494, 3, 3.62382e-008
*CLoad
pipe-1-1.495, 1, -0.993666
*CLoad
pipe-1-1.495, 2, -1.85301e-005
*CLoad
pipe-1-1.495, 3, 1.31449e-007
*CLoad
pipe-1-1.496, 1, -0.95671
*CLoad
pipe-1-1.496, 2, 0.2805
*CLoad
pipe-1-1.496, 3, -1.93481e-010
*CLoad
pipe-1-1.497, 1, -0.840561
*CLoad
pipe-1-1.497, 2, 0.540698
*CLoad
pipe-1-1.497, 3, -1.44658e-012
*CLoad
pipe-1-1.498, 1, -0.650131
*CLoad
pipe-1-1.498, 2, 0.750918
*CLoad
pipe-1-1.498, 3, 3.0385e-012
*CLoad
pipe-1-1.499, 1, -0.414683
*CLoad
pipe-1-1.499, 2, 0.907007
*CLoad
pipe-1-1.499, 3, 4.06414e-012
*CLoad
pipe-1-1.500, 1, -0.141779
*CLoad
pipe-1-1.500, 2, 0.986146
*CLoad
pipe-1-1.500, 3, 1.60767e-012
*CLoad
pipe-1-1.501, 1, 0.141777
*CLoad
pipe-1-1.501, 2, 0.986147
*CLoad
pipe-1-1.501, 3, 6.73441e-012
*CLoad
pipe-1-1.502, 1, 0.414686
*CLoad
pipe-1-1.502, 2, 0.907006
*CLoad
pipe-1-1.502, 3, -3.58587e-012
*CLoad
pipe-1-1.503, 1, 0.650129
*CLoad
pipe-1-1.503, 2, 0.750919
*CLoad
pipe-1-1.503, 3, -1.91143e-012
*CLoad
pipe-1-1.504, 1, 0.840562
*CLoad
pipe-1-1.504, 2, 0.540694
*CLoad
pipe-1-1.504, 3, 3.12638e-012
*CLoad
pipe-1-1.505, 1, 0.956709
*CLoad
pipe-1-1.505, 2, 0.280499
*CLoad
pipe-1-1.505, 3, 2.32515e-011
*CLoad
pipe-1-1.506, 1, 0.993665
*CLoad
pipe-1-1.506, 2, -1.89383e-005
*CLoad
pipe-1-1.506, 3, -9.90176e-008
*CLoad
pipe-1-1.507, 1, 0.956485
*CLoad
pipe-1-1.507, 2, -0.280411
*CLoad
pipe-1-1.507, 3, 2.38549e-008
*CLoad
pipe-1-1.508, 1, 0.840787
*CLoad
pipe-1-1.508, 2, -0.540808
*CLoad
pipe-1-1.508, 3, -4.57903e-008
*CLoad
pipe-1-1.509, 1, 0.650057
*CLoad
pipe-1-1.509, 2, -0.75088
*CLoad
pipe-1-1.509, 3, -8.37757e-009
*CLoad
pipe-1-1.510, 1, 0.414684
*CLoad
pipe-1-1.510, 2, -0.907001
*CLoad
pipe-1-1.510, 3, 3.15451e-008
*CLoad
pipe-1-1.511, 1, 0.141777
*CLoad
pipe-1-1.511, 2, -0.986147
*CLoad
pipe-1-1.511, 3, -6.74093e-008
*CLoad
pipe-1-1.512, 1, -0.141779
*CLoad
pipe-1-1.512, 2, -0.986146
*CLoad
pipe-1-1.512, 3, 6.8291e-008
*CLoad
pipe-1-1.513, 1, -0.414681
*CLoad
pipe-1-1.513, 2, -0.907002
*CLoad
pipe-1-1.513, 3, -3.406e-008
*CLoad
pipe-1-1.514, 1, -0.650059
*CLoad
pipe-1-1.514, 2, -0.750878
*CLoad
pipe-1-1.514, 3, 1.31921e-009
*CLoad
pipe-1-1.515, 1, -0.840786
*CLoad
pipe-1-1.515, 2, -0.540811
*CLoad
pipe-1-1.515, 3, 4.55046e-008
*CLoad
pipe-1-1.516, 1, -0.956486
*CLoad
pipe-1-1.516, 2, -0.280412
*CLoad
pipe-1-1.516, 3, -2.14456e-008
*CLoad
pipe-1-1.517, 1, -0.993665
*CLoad
pipe-1-1.517, 2, -1.85717e-005
*CLoad
pipe-1-1.517, 3, -2.68497e-008
*CLoad
pipe-1-1.518, 1, -0.956711
*CLoad
pipe-1-1.518, 2, 0.2805
*CLoad
pipe-1-1.518, 3, -1.57802e-010
*CLoad
pipe-1-1.519, 1, -0.840561
*CLoad
pipe-1-1.519, 2, 0.540698
*CLoad
pipe-1-1.519, 3, -1.44595e-012
*CLoad
pipe-1-1.520, 1, -0.65013
*CLoad
pipe-1-1.520, 2, 0.750917
*CLoad
pipe-1-1.520, 3, 3.03385e-012
*CLoad
pipe-1-1.521, 1, -0.414683
*CLoad
pipe-1-1.521, 2, 0.907007
*CLoad
pipe-1-1.521, 3, 4.54075e-012
*CLoad
pipe-1-1.522, 1, -0.141779
*CLoad
pipe-1-1.522, 2, 0.986146
*CLoad
pipe-1-1.522, 3, 5.33418e-012
*CLoad
pipe-1-1.523, 1, 0.141777
*CLoad
pipe-1-1.523, 2, 0.986147
*CLoad
pipe-1-1.523, 3, 5.10936e-012
*CLoad
pipe-1-1.524, 1, 0.414686
*CLoad
pipe-1-1.524, 2, 0.907006
*CLoad
pipe-1-1.524, 3, -3.70502e-012
*CLoad
pipe-1-1.525, 1, 0.650128
*CLoad
pipe-1-1.525, 2, 0.750918
*CLoad
pipe-1-1.525, 3, -1.94964e-012
*CLoad
pipe-1-1.526, 1, 0.840563
*CLoad
pipe-1-1.526, 2, 0.540695
*CLoad
pipe-1-1.526, 3, 3.12981e-012
*CLoad
pipe-1-1.527, 1, 0.95671
*CLoad
pipe-1-1.527, 2, 0.280499
*CLoad
pipe-1-1.527, 3, 2.59818e-011
*CLoad
pipe-1-1.528, 1, 0.993664
*CLoad
pipe-1-1.528, 2, -1.89483e-005
*CLoad
pipe-1-1.528, 3, 5.95443e-008
*CLoad
pipe-1-1.529, 1, 0.956485
*CLoad
pipe-1-1.529, 2, -0.280411
*CLoad
pipe-1-1.529, 3, -7.87609e-009
*CLoad
pipe-1-1.530, 1, 0.840787
*CLoad
pipe-1-1.530, 2, -0.540808
*CLoad
pipe-1-1.530, 3, 1.52477e-008
*CLoad
pipe-1-1.531, 1, 0.650057
*CLoad
pipe-1-1.531, 2, -0.750879
*CLoad
pipe-1-1.531, 3, 2.73255e-009
*CLoad
pipe-1-1.532, 1, 0.414684
*CLoad
pipe-1-1.532, 2, -0.907001
*CLoad
pipe-1-1.532, 3, -1.05581e-008
*CLoad
pipe-1-1.533, 1, 0.141777
*CLoad
pipe-1-1.533, 2, -0.986147
*CLoad
pipe-1-1.533, 3, 2.2543e-008
*CLoad
pipe-1-1.534, 1, -0.141779
*CLoad
pipe-1-1.534, 2, -0.986146
*CLoad
pipe-1-1.534, 3, -2.28413e-008
*CLoad
pipe-1-1.535, 1, -0.414681
*CLoad
pipe-1-1.535, 2, -0.907002
*CLoad
pipe-1-1.535, 3, 1.13928e-008
*CLoad
pipe-1-1.536, 1, -0.650059
*CLoad
pipe-1-1.536, 2, -0.750877
*CLoad
pipe-1-1.536, 3, -3.78669e-010
*CLoad
pipe-1-1.537, 1, -0.840786
*CLoad
pipe-1-1.537, 2, -0.540812
*CLoad
pipe-1-1.537, 3, -1.51524e-008
*CLoad
pipe-1-1.538, 1, -0.956486
*CLoad
pipe-1-1.538, 2, -0.280412
*CLoad
pipe-1-1.538, 3, 7.15935e-009
*CLoad
pipe-1-1.539, 1, -0.993664
*CLoad
pipe-1-1.539, 2, -1.86074e-005
*CLoad
pipe-1-1.539, 3, 5.23302e-008
*CLoad
pipe-1-1.540, 1, -0.956711
*CLoad
pipe-1-1.540, 2, 0.2805
*CLoad
pipe-1-1.540, 3, -1.84109e-010
*CLoad
pipe-1-1.541, 1, -0.840561
*CLoad
pipe-1-1.541, 2, 0.540699
*CLoad
pipe-1-1.541, 3, -1.46317e-012
*CLoad
pipe-1-1.542, 1, -0.650129
*CLoad
pipe-1-1.542, 2, 0.750916
*CLoad
pipe-1-1.542, 3, 3.03895e-012
*CLoad
pipe-1-1.543, 1, -0.414683
*CLoad
pipe-1-1.543, 2, 0.907007
*CLoad
pipe-1-1.543, 3, 3.91421e-012
*CLoad
pipe-1-1.544, 1, -0.141779
*CLoad
pipe-1-1.544, 2, 0.986146
*CLoad
pipe-1-1.544, 3, 1.12819e-012
*CLoad
pipe-1-1.545, 1, 0.141777
*CLoad
pipe-1-1.545, 2, 0.986147
*CLoad
pipe-1-1.545, 3, 6.56185e-012
*CLoad
pipe-1-1.546, 1, 0.414686
*CLoad
pipe-1-1.546, 2, 0.907006
*CLoad
pipe-1-1.546, 3, -6.43275e-012
*CLoad
pipe-1-1.547, 1, 0.650127
*CLoad
pipe-1-1.547, 2, 0.750918
*CLoad
pipe-1-1.547, 3, -1.26548e-012
*CLoad
pipe-1-1.548, 1, 0.840563
*CLoad
pipe-1-1.548, 2, 0.540695
*CLoad
pipe-1-1.548, 3, 3.15267e-012
*CLoad
pipe-1-1.549, 1, 0.95671
*CLoad
pipe-1-1.549, 2, 0.280499
*CLoad
pipe-1-1.549, 3, 3.18269e-011
*CLoad
pipe-1-1.550, 1, 0.993663
*CLoad
pipe-1-1.550, 2, -1.89525e-005
*CLoad
pipe-1-1.550, 3, -1.96977e-008
*CLoad
pipe-1-1.551, 1, 0.956485
*CLoad
pipe-1-1.551, 2, -0.280411
*CLoad
pipe-1-1.551, 3, -7.87343e-009
*CLoad
pipe-1-1.552, 1, 0.840787
*CLoad
pipe-1-1.552, 2, -0.540808
*CLoad
pipe-1-1.552, 3, 1.52509e-008
*CLoad
pipe-1-1.553, 1, 0.650057
*CLoad
pipe-1-1.553, 2, -0.750879
*CLoad
pipe-1-1.553, 3, 2.73312e-009
*CLoad
pipe-1-1.554, 1, 0.414684
*CLoad
pipe-1-1.554, 2, -0.907001
*CLoad
pipe-1-1.554, 3, -1.05603e-008
*CLoad
pipe-1-1.555, 1, 0.141777
*CLoad
pipe-1-1.555, 2, -0.986147
*CLoad
pipe-1-1.555, 3, 2.25477e-008
*CLoad
pipe-1-1.556, 1, -0.141779
*CLoad
pipe-1-1.556, 2, -0.986146
*CLoad
pipe-1-1.556, 3, -2.28461e-008
*CLoad
pipe-1-1.557, 1, -0.414681
*CLoad
pipe-1-1.557, 2, -0.907002
*CLoad
pipe-1-1.557, 3, 1.13952e-008
*CLoad
pipe-1-1.558, 1, -0.650059
*CLoad
pipe-1-1.558, 2, -0.750877
*CLoad
pipe-1-1.558, 3, -3.78759e-010
*CLoad
pipe-1-1.559, 1, -0.840786
*CLoad
pipe-1-1.559, 2, -0.540812
*CLoad
pipe-1-1.559, 3, -1.51556e-008
*CLoad
pipe-1-1.560, 1, -0.956486
*CLoad
pipe-1-1.560, 2, -0.280412
*CLoad
pipe-1-1.560, 3, 7.16569e-009
*CLoad
pipe-1-1.561, 1, -0.993664
*CLoad
pipe-1-1.561, 2, -1.86389e-005
*CLoad
pipe-1-1.561, 3, 5.23739e-008
*CLoad
pipe-1-1.562, 1, -0.956711
*CLoad
pipe-1-1.562, 2, 0.2805
*CLoad
pipe-1-1.562, 3, -1.3473e-010
*CLoad
pipe-1-1.563, 1, -0.840561
*CLoad
pipe-1-1.563, 2, 0.540699
*CLoad
pipe-1-1.563, 3, -1.41231e-012
*CLoad
pipe-1-1.564, 1, -0.650129
*CLoad
pipe-1-1.564, 2, 0.750916
*CLoad
pipe-1-1.564, 3, -3.5689e-012
*CLoad
pipe-1-1.565, 1, -0.414683
*CLoad
pipe-1-1.565, 2, 0.907007
*CLoad
pipe-1-1.565, 3, 2.78064e-012
*CLoad
pipe-1-1.566, 1, -0.141779
*CLoad
pipe-1-1.566, 2, 0.986146
*CLoad
pipe-1-1.566, 3, 1.61367e-012
*CLoad
pipe-1-1.567, 1, 0.141777
*CLoad
pipe-1-1.567, 2, 0.986147
*CLoad
pipe-1-1.567, 3, 6.58633e-012
*CLoad
pipe-1-1.568, 1, 0.414686
*CLoad
pipe-1-1.568, 2, 0.907006
*CLoad
pipe-1-1.568, 3, -3.48275e-012
*CLoad
pipe-1-1.569, 1, 0.650127
*CLoad
pipe-1-1.569, 2, 0.750918
*CLoad
pipe-1-1.569, 3, -2.00619e-012
*CLoad
pipe-1-1.570, 1, 0.840563
*CLoad
pipe-1-1.570, 2, 0.540695
*CLoad
pipe-1-1.570, 3, 3.12719e-012
*CLoad
pipe-1-1.571, 1, 0.95671
*CLoad
pipe-1-1.571, 2, 0.280499
*CLoad
pipe-1-1.571, 3, 3.50694e-011
*CLoad
pipe-1-1.572, 1, 0.993663
*CLoad
pipe-1-1.572, 2, -1.89525e-005
*CLoad
pipe-1-1.572, 3, -1.96855e-008
*CLoad
pipe-1-1.573, 1, 0.956485
*CLoad
pipe-1-1.573, 2, -0.280411
*CLoad
pipe-1-1.573, 3, 2.38694e-008
*CLoad
pipe-1-1.574, 1, 0.840787
*CLoad
pipe-1-1.574, 2, -0.540808
*CLoad
pipe-1-1.574, 3, -4.57929e-008
*CLoad
pipe-1-1.575, 1, 0.650057
*CLoad
pipe-1-1.575, 2, -0.75088
*CLoad
pipe-1-1.575, 3, -8.37802e-009
*CLoad
pipe-1-1.576, 1, 0.414684
*CLoad
pipe-1-1.576, 2, -0.907001
*CLoad
pipe-1-1.576, 3, 3.15469e-008
*CLoad
pipe-1-1.577, 1, 0.141777
*CLoad
pipe-1-1.577, 2, -0.986147
*CLoad
pipe-1-1.577, 3, -6.74133e-008
*CLoad
pipe-1-1.578, 1, -0.141779
*CLoad
pipe-1-1.578, 2, -0.986146
*CLoad
pipe-1-1.578, 3, 6.82943e-008
*CLoad
pipe-1-1.579, 1, -0.414681
*CLoad
pipe-1-1.579, 2, -0.907002
*CLoad
pipe-1-1.579, 3, -3.40619e-008
*CLoad
pipe-1-1.580, 1, -0.650059
*CLoad
pipe-1-1.580, 2, -0.750878
*CLoad
pipe-1-1.580, 3, 1.3193e-009
*CLoad
pipe-1-1.581, 1, -0.840786
*CLoad
pipe-1-1.581, 2, -0.540811
*CLoad
pipe-1-1.581, 3, 4.55073e-008
*CLoad
pipe-1-1.582, 1, -0.956486
*CLoad
pipe-1-1.582, 2, -0.280412
*CLoad
pipe-1-1.582, 3, -2.14312e-008
*CLoad
pipe-1-1.583, 1, -0.993665
*CLoad
pipe-1-1.583, 2, -1.86664e-005
*CLoad
pipe-1-1.583, 3, -2.67656e-008
*CLoad
pipe-1-1.584, 1, -0.956711
*CLoad
pipe-1-1.584, 2, 0.2805
*CLoad
pipe-1-1.584, 3, -1.37332e-010
*CLoad
pipe-1-1.585, 1, -0.840561
*CLoad
pipe-1-1.585, 2, 0.540698
*CLoad
pipe-1-1.585, 3, -1.39714e-012
*CLoad
pipe-1-1.586, 1, -0.65013
*CLoad
pipe-1-1.586, 2, 0.750917
*CLoad
pipe-1-1.586, 3, 1.85015e-012
*CLoad
pipe-1-1.587, 1, -0.414683
*CLoad
pipe-1-1.587, 2, 0.907007
*CLoad
pipe-1-1.587, 3, 2.08858e-012
*CLoad
pipe-1-1.588, 1, -0.141779
*CLoad
pipe-1-1.588, 2, 0.986146
*CLoad
pipe-1-1.588, 3, 8.10925e-013
*CLoad
pipe-1-1.589, 1, 0.141777
*CLoad
pipe-1-1.589, 2, 0.986147
*CLoad
pipe-1-1.589, 3, 6.74135e-012
*CLoad
pipe-1-1.590, 1, 0.414686
*CLoad
pipe-1-1.590, 2, 0.907006
*CLoad
pipe-1-1.590, 3, -3.06017e-012
*CLoad
pipe-1-1.591, 1, 0.650128
*CLoad
pipe-1-1.591, 2, 0.750918
*CLoad
pipe-1-1.591, 3, -1.91379e-012
*CLoad
pipe-1-1.592, 1, 0.840563
*CLoad
pipe-1-1.592, 2, 0.540695
*CLoad
pipe-1-1.592, 3, 3.12058e-012
*CLoad
pipe-1-1.593, 1, 0.95671
*CLoad
pipe-1-1.593, 2, 0.280499
*CLoad
pipe-1-1.593, 3, 4.00326e-011
*CLoad
pipe-1-1.594, 1, 0.993664
*CLoad
pipe-1-1.594, 2, -1.89484e-005
*CLoad
pipe-1-1.594, 3, 5.95999e-008
*CLoad
pipe-1-1.595, 1, 0.956485
*CLoad
pipe-1-1.595, 2, -0.280411
*CLoad
pipe-1-1.595, 3, -4.00778e-008
*CLoad
pipe-1-1.596, 1, 0.840787
*CLoad
pipe-1-1.596, 2, -0.540807
*CLoad
pipe-1-1.596, 3, 7.64539e-008
*CLoad
pipe-1-1.597, 1, 0.650058
*CLoad
pipe-1-1.597, 2, -0.750881
*CLoad
pipe-1-1.597, 3, 1.45664e-008
*CLoad
pipe-1-1.598, 1, 0.414684
*CLoad
pipe-1-1.598, 2, -0.907
*CLoad
pipe-1-1.598, 3, -5.20269e-008
*CLoad
pipe-1-1.599, 1, 0.141777
*CLoad
pipe-1-1.599, 2, -0.986147
*CLoad
pipe-1-1.599, 3, 1.11475e-007
*CLoad
pipe-1-1.600, 1, -0.141778
*CLoad
pipe-1-1.600, 2, -0.986146
*CLoad
pipe-1-1.600, 3, -1.12952e-007
*CLoad
pipe-1-1.601, 1, -0.414681
*CLoad
pipe-1-1.601, 2, -0.907002
*CLoad
pipe-1-1.601, 3, 5.62371e-008
*CLoad
pipe-1-1.602, 1, -0.65006
*CLoad
pipe-1-1.602, 2, -0.750879
*CLoad
pipe-1-1.602, 3, -2.82645e-009
*CLoad
pipe-1-1.603, 1, -0.840785
*CLoad
pipe-1-1.603, 2, -0.540811
*CLoad
pipe-1-1.603, 3, -7.59838e-008
*CLoad
pipe-1-1.604, 1, -0.956486
*CLoad
pipe-1-1.604, 2, -0.280412
*CLoad
pipe-1-1.604, 3, 3.62605e-008
*CLoad
pipe-1-1.605, 1, -0.993666
*CLoad
pipe-1-1.605, 2, -1.86879e-005
*CLoad
pipe-1-1.605, 3, 1.31604e-007
*CLoad
pipe-1-1.606, 1, -0.95671
*CLoad
pipe-1-1.606, 2, 0.2805
*CLoad
pipe-1-1.606, 3, -1.20821e-010
*CLoad
pipe-1-1.607, 1, -0.840561
*CLoad
pipe-1-1.607, 2, 0.540698
*CLoad
pipe-1-1.607, 3, -1.41478e-012
*CLoad
pipe-1-1.608, 1, -0.650131
*CLoad
pipe-1-1.608, 2, 0.750918
*CLoad
pipe-1-1.608, 3, 3.02454e-012
*CLoad
pipe-1-1.609, 1, -0.414683
*CLoad
pipe-1-1.609, 2, 0.907007
*CLoad
pipe-1-1.609, 3, 6.30575e-013
*CLoad
pipe-1-1.610, 1, -0.141779
*CLoad
pipe-1-1.610, 2, 0.986146
*CLoad
pipe-1-1.610, 3, -9.9818e-013
*CLoad
pipe-1-1.611, 1, 0.141777
*CLoad
pipe-1-1.611, 2, 0.986147
*CLoad
pipe-1-1.611, 3, 6.38323e-012
*CLoad
pipe-1-1.612, 1, 0.414686
*CLoad
pipe-1-1.612, 2, 0.907006
*CLoad
pipe-1-1.612, 3, 1.86302e-012
*CLoad
pipe-1-1.613, 1, 0.650129
*CLoad
pipe-1-1.613, 2, 0.750919
*CLoad
pipe-1-1.613, 3, -1.818e-012
*CLoad
pipe-1-1.614, 1, 0.840562
*CLoad
pipe-1-1.614, 2, 0.540694
*CLoad
pipe-1-1.614, 3, 3.12826e-012
*CLoad
pipe-1-1.615, 1, 0.956709
*CLoad
pipe-1-1.615, 2, 0.280499
*CLoad
pipe-1-1.615, 3, 4.46437e-011
*CLoad
pipe-1-1.616, 1, 0.993665
*CLoad
pipe-1-1.616, 2, -1.89383e-005
*CLoad
pipe-1-1.616, 3, -9.89343e-008
*CLoad
pipe-1-1.617, 1, 0.956485
*CLoad
pipe-1-1.617, 2, -0.280411
*CLoad
pipe-1-1.617, 3, 5.70201e-008
*CLoad
pipe-1-1.618, 1, 0.840786
*CLoad
pipe-1-1.618, 2, -0.540807
*CLoad
pipe-1-1.618, 3, -1.07316e-007
*CLoad
pipe-1-1.619, 1, 0.65006
*CLoad
pipe-1-1.619, 2, -0.750882
*CLoad
pipe-1-1.619, 3, -2.1653e-008
*CLoad
pipe-1-1.620, 1, 0.414684
*CLoad
pipe-1-1.620, 2, -0.907
*CLoad
pipe-1-1.620, 3, 7.1288e-008
*CLoad
pipe-1-1.621, 1, 0.141776
*CLoad
pipe-1-1.621, 2, -0.986147
*CLoad
pipe-1-1.621, 3, -1.5383e-007
*CLoad
pipe-1-1.622, 1, -0.141778
*CLoad
pipe-1-1.622, 2, -0.986146
*CLoad
pipe-1-1.622, 3, 1.55895e-007
*CLoad
pipe-1-1.623, 1, -0.414681
*CLoad
pipe-1-1.623, 2, -0.907001
*CLoad
pipe-1-1.623, 3, -7.72294e-008
*CLoad
pipe-1-1.624, 1, -0.650062
*CLoad
pipe-1-1.624, 2, -0.750881
*CLoad
pipe-1-1.624, 3, 5.26221e-009
*CLoad
pipe-1-1.625, 1, -0.840784
*CLoad
pipe-1-1.625, 2, -0.54081
*CLoad
pipe-1-1.625, 3, 1.06668e-007
*CLoad
pipe-1-1.626, 1, -0.956485
*CLoad
pipe-1-1.626, 2, -0.280413
*CLoad
pipe-1-1.626, 3, -5.14611e-008
*CLoad
pipe-1-1.627, 1, -0.993667
*CLoad
pipe-1-1.627, 2, -1.86986e-005
*CLoad
pipe-1-1.627, 3, -1.05917e-007
*CLoad
pipe-1-1.628, 1, -0.95671
*CLoad
pipe-1-1.628, 2, 0.2805
*CLoad
pipe-1-1.628, 3, -1.38937e-010
*CLoad
pipe-1-1.629, 1, -0.84056
*CLoad
pipe-1-1.629, 2, 0.540697
*CLoad
pipe-1-1.629, 3, -1.48121e-012
*CLoad
pipe-1-1.630, 1, -0.650132
*CLoad
pipe-1-1.630, 2, 0.750919
*CLoad
pipe-1-1.630, 3, 3.03927e-012
*CLoad
pipe-1-1.631, 1, -0.414683
*CLoad
pipe-1-1.631, 2, 0.907007
*CLoad
pipe-1-1.631, 3, 3.89317e-012
*CLoad
pipe-1-1.632, 1, -0.141778
*CLoad
pipe-1-1.632, 2, 0.986146
*CLoad
pipe-1-1.632, 3, 9.50256e-013
*CLoad
pipe-1-1.633, 1, 0.141777
*CLoad
pipe-1-1.633, 2, 0.986147
*CLoad
pipe-1-1.633, 3, 6.1974e-012
*CLoad
pipe-1-1.634, 1, 0.414686
*CLoad
pipe-1-1.634, 2, 0.907005
*CLoad
pipe-1-1.634, 3, -3.35599e-012
*CLoad
pipe-1-1.635, 1, 0.65013
*CLoad
pipe-1-1.635, 2, 0.750921
*CLoad
pipe-1-1.635, 3, -1.83477e-012
*CLoad
pipe-1-1.636, 1, 0.840562
*CLoad
pipe-1-1.636, 2, 0.540694
*CLoad
pipe-1-1.636, 3, 3.16e-012
*CLoad
pipe-1-1.637, 1, 0.956709
*CLoad
pipe-1-1.637, 2, 0.280499
*CLoad
pipe-1-1.637, 3, 4.93259e-011
*CLoad
pipe-1-1.638, 1, 0.993667
*CLoad
pipe-1-1.638, 2, -1.89174e-005
*CLoad
pipe-1-1.638, 3, 1.38972e-007
*CLoad
pipe-1-1.639, 1, 0.956485
*CLoad
pipe-1-1.639, 2, -0.280412
*CLoad
pipe-1-1.639, 3, -7.45318e-008
*CLoad
pipe-1-1.640, 1, 0.840785
*CLoad
pipe-1-1.640, 2, -0.540806
*CLoad
pipe-1-1.640, 3, 1.38438e-007
*CLoad
pipe-1-1.641, 1, 0.650061
*CLoad
pipe-1-1.641, 2, -0.750884
*CLoad
pipe-1-1.641, 3, 2.9993e-008
*CLoad
pipe-1-1.642, 1, 0.414684
*CLoad
pipe-1-1.642, 2, -0.906999
*CLoad
pipe-1-1.642, 3, -8.77822e-008
*CLoad
pipe-1-1.643, 1, 0.141775
*CLoad
pipe-1-1.643, 2, -0.986147
*CLoad
pipe-1-1.643, 3, 1.92739e-007
*CLoad
pipe-1-1.644, 1, -0.141777
*CLoad
pipe-1-1.644, 2, -0.986146
*CLoad
pipe-1-1.644, 3, -1.95406e-007
*CLoad
pipe-1-1.645, 1, -0.414681
*CLoad
pipe-1-1.645, 2, -0.907
*CLoad
pipe-1-1.645, 3, 9.54962e-008
*CLoad
pipe-1-1.646, 1, -0.650063
*CLoad
pipe-1-1.646, 2, -0.750883
*CLoad
pipe-1-1.646, 3, -9.00086e-009
*CLoad
pipe-1-1.647, 1, -0.840783
*CLoad
pipe-1-1.647, 2, -0.540809
*CLoad
pipe-1-1.647, 3, -1.37623e-007
*CLoad
pipe-1-1.648, 1, -0.956486
*CLoad
pipe-1-1.648, 2, -0.280413
*CLoad
pipe-1-1.648, 3, 6.76682e-008
*CLoad
pipe-1-1.649, 1, -0.993668
*CLoad
pipe-1-1.649, 2, -1.86869e-005
*CLoad
pipe-1-1.649, 3, 2.11028e-007
*CLoad
pipe-1-1.650, 1, -0.95671
*CLoad
pipe-1-1.650, 2, 0.280501
*CLoad
pipe-1-1.650, 3, -9.87334e-011
*CLoad
pipe-1-1.651, 1, -0.840559
*CLoad
pipe-1-1.651, 2, 0.540696
*CLoad
pipe-1-1.651, 3, -1.5475e-012
*CLoad
pipe-1-1.652, 1, -0.650134
*CLoad
pipe-1-1.652, 2, 0.750921
*CLoad
pipe-1-1.652, 3, 2.95367e-012
*CLoad
pipe-1-1.653, 1, -0.414683
*CLoad
pipe-1-1.653, 2, 0.907006
*CLoad
pipe-1-1.653, 3, 3.85242e-012
*CLoad
pipe-1-1.654, 1, -0.141777
*CLoad
pipe-1-1.654, 2, 0.986146
*CLoad
pipe-1-1.654, 3, 2.628e-012
*CLoad
pipe-1-1.655, 1, 0.141776
*CLoad
pipe-1-1.655, 2, 0.986146
*CLoad
pipe-1-1.655, 3, 6.69647e-012
*CLoad
pipe-1-1.656, 1, 0.414686
*CLoad
pipe-1-1.656, 2, 0.907005
*CLoad
pipe-1-1.656, 3, -3.3119e-012
*CLoad
pipe-1-1.657, 1, 0.650132
*CLoad
pipe-1-1.657, 2, 0.750923
*CLoad
pipe-1-1.657, 3, -1.9158e-012
*CLoad
pipe-1-1.658, 1, 0.840561
*CLoad
pipe-1-1.658, 2, 0.540693
*CLoad
pipe-1-1.658, 3, 3.12368e-012
*CLoad
pipe-1-1.659, 1, 0.956709
*CLoad
pipe-1-1.659, 2, 0.2805
*CLoad
pipe-1-1.659, 3, 5.26773e-011
*CLoad
pipe-1-1.660, 1, 0.993667
*CLoad
pipe-1-1.660, 2, -1.88741e-005
*CLoad
pipe-1-1.660, 3, -1.78361e-007
*CLoad
pipe-1-1.661, 1, 0.956488
*CLoad
pipe-1-1.661, 2, -0.280414
*CLoad
pipe-1-1.661, 3, 9.30205e-008
*CLoad
pipe-1-1.662, 1, 0.840784
*CLoad
pipe-1-1.662, 2, -0.540805
*CLoad
pipe-1-1.662, 3, -1.69845e-007
*CLoad
pipe-1-1.663, 1, 0.650064
*CLoad
pipe-1-1.663, 2, -0.750887
*CLoad
pipe-1-1.663, 3, -3.99551e-008
*CLoad
pipe-1-1.664, 1, 0.414684
*CLoad
pipe-1-1.664, 2, -0.906997
*CLoad
pipe-1-1.664, 3, 9.83356e-008
*CLoad
pipe-1-1.665, 1, 0.141774
*CLoad
pipe-1-1.665, 2, -0.986147
*CLoad
pipe-1-1.665, 3, -2.24855e-007
*CLoad
pipe-1-1.666, 1, -0.141776
*CLoad
pipe-1-1.666, 2, -0.986147
*CLoad
pipe-1-1.666, 3, 2.28114e-007
*CLoad
pipe-1-1.667, 1, -0.414681
*CLoad
pipe-1-1.667, 2, -0.906999
*CLoad
pipe-1-1.667, 3, -1.07885e-007
*CLoad
pipe-1-1.668, 1, -0.650066
*CLoad
pipe-1-1.668, 2, -0.750885
*CLoad
pipe-1-1.668, 3, 1.44184e-008
*CLoad
pipe-1-1.669, 1, -0.840782
*CLoad
pipe-1-1.669, 2, -0.540808
*CLoad
pipe-1-1.669, 3, 1.68874e-007
*CLoad
pipe-1-1.670, 1, -0.956489
*CLoad
pipe-1-1.670, 2, -0.280415
*CLoad
pipe-1-1.670, 3, -8.44574e-008
*CLoad
pipe-1-1.671, 1, -0.993662
*CLoad
pipe-1-1.671, 2, -1.86608e-005
*CLoad
pipe-1-1.671, 3, -1.85494e-007
*CLoad
pipe-1-1.672, 1, -0.956713
*CLoad
pipe-1-1.672, 2, 0.280503
*CLoad
pipe-1-1.672, 3, -1.0109e-010
*CLoad
pipe-1-1.673, 1, -0.840558
*CLoad
pipe-1-1.673, 2, 0.540695
*CLoad
pipe-1-1.673, 3, -1.49251e-012
*CLoad
pipe-1-1.674, 1, -0.650136
*CLoad
pipe-1-1.674, 2, 0.750923
*CLoad
pipe-1-1.674, 3, 3.11633e-012
*CLoad
pipe-1-1.675, 1, -0.414684
*CLoad
pipe-1-1.675, 2, 0.907005
*CLoad
pipe-1-1.675, 3, 3.89124e-012
*CLoad
pipe-1-1.676, 1, -0.141776
*CLoad
pipe-1-1.676, 2, 0.986146
*CLoad
pipe-1-1.676, 3, 1.3509e-012
*CLoad
pipe-1-1.677, 1, 0.141774
*CLoad
pipe-1-1.677, 2, 0.986147
*CLoad
pipe-1-1.677, 3, 7.37615e-012
*CLoad
pipe-1-1.678, 1, 0.414686
*CLoad
pipe-1-1.678, 2, 0.907003
*CLoad
pipe-1-1.678, 3, -3.31355e-012
*CLoad
pipe-1-1.679, 1, 0.650134
*CLoad
pipe-1-1.679, 2, 0.750925
*CLoad
pipe-1-1.679, 3, -1.92026e-012
*CLoad
pipe-1-1.680, 1, 0.84056
*CLoad
pipe-1-1.680, 2, 0.540692
*CLoad
pipe-1-1.680, 3, 3.11835e-012
*CLoad
pipe-1-1.681, 1, 0.956712
*CLoad
pipe-1-1.681, 2, 0.280502
*CLoad
pipe-1-1.681, 3, 5.86758e-011
*CLoad
pipe-1-1.682, 1, 0.993662
*CLoad
pipe-1-1.682, 2, -1.88164e-005
*CLoad
pipe-1-1.682, 3, 2.18825e-007
*CLoad
pipe-1-1.683, 1, 0.956928
*CLoad
pipe-1-1.683, 2, -0.280548
*CLoad
pipe-1-1.683, 3, -1.7245e-007
*CLoad
pipe-1-1.684, 1, 0.841142
*CLoad
pipe-1-1.684, 2, -0.541028
*CLoad
pipe-1-1.684, 3, 2.81674e-007
*CLoad
pipe-1-1.685, 1, 0.6504
*CLoad
pipe-1-1.685, 2, -0.751264
*CLoad
pipe-1-1.685, 3, 1.50264e-008
*CLoad
pipe-1-1.686, 1, 0.414872
*CLoad
pipe-1-1.686, 2, -0.907414
*CLoad
pipe-1-1.686, 3, -8.67963e-008
*CLoad
pipe-1-1.687, 1, 0.141841
*CLoad
pipe-1-1.687, 2, -0.986607
*CLoad
pipe-1-1.687, 3, 2.33232e-007
*CLoad
pipe-1-1.688, 1, -0.141843
*CLoad
pipe-1-1.688, 2, -0.986607
*CLoad
pipe-1-1.688, 3, -2.37332e-007
*CLoad
pipe-1-1.689, 1, -0.414869
*CLoad
pipe-1-1.689, 2, -0.907416
*CLoad
pipe-1-1.689, 3, 1.01463e-007
*CLoad
pipe-1-1.690, 1, -0.650402
*CLoad
pipe-1-1.690, 2, -0.751262
*CLoad
pipe-1-1.690, 3, 1.04203e-008
*CLoad
pipe-1-1.691, 1, -0.84114
*CLoad
pipe-1-1.691, 2, -0.541032
*CLoad
pipe-1-1.691, 3, -2.81016e-007
*CLoad
pipe-1-1.692, 1, -0.956929
*CLoad
pipe-1-1.692, 2, -0.280549
*CLoad
pipe-1-1.692, 3, 1.63691e-007
*CLoad
pipe-1-1.693, 1, -0.994151
*CLoad
pipe-1-1.693, 2, -1.85296e-005
*CLoad
pipe-1-1.693, 3, 2.74822e-007
*CLoad
pipe-1-1.694, 1, -0.957151
*CLoad
pipe-1-1.694, 2, 0.280636
*CLoad
pipe-1-1.694, 3, -1.40531e-010
*CLoad
pipe-1-1.695, 1, -0.84092
*CLoad
pipe-1-1.695, 2, 0.540921
*CLoad
pipe-1-1.695, 3, -1.41485e-012
*CLoad
pipe-1-1.696, 1, -0.65047
*CLoad
pipe-1-1.696, 2, 0.7513
*CLoad
pipe-1-1.696, 3, 3.02939e-012
*CLoad
pipe-1-1.697, 1, -0.414871
*CLoad
pipe-1-1.697, 2, 0.907421
*CLoad
pipe-1-1.697, 3, 3.8983e-012
*CLoad
pipe-1-1.698, 1, -0.141843
*CLoad
pipe-1-1.698, 2, 0.986607
*CLoad
pipe-1-1.698, 3, 1.29587e-012
*CLoad
pipe-1-1.699, 1, 0.141841
*CLoad
pipe-1-1.699, 2, 0.986607
*CLoad
pipe-1-1.699, 3, 6.69912e-012
*CLoad
pipe-1-1.700, 1, 0.414874
*CLoad
pipe-1-1.700, 2, 0.90742
*CLoad
pipe-1-1.700, 3, -3.32076e-012
*CLoad
pipe-1-1.701, 1, 0.650468
*CLoad
pipe-1-1.701, 2, 0.751301
*CLoad
pipe-1-1.701, 3, -1.91987e-012
*CLoad
pipe-1-1.702, 1, 0.840921
*CLoad
pipe-1-1.702, 2, 0.540917
*CLoad
pipe-1-1.702, 3, 3.13205e-012
*CLoad
pipe-1-1.703, 1, 0.95715
*CLoad
pipe-1-1.703, 2, 0.280635
*CLoad
pipe-1-1.703, 3, 6.21906e-011
*CLoad
pipe-1-1.704, 1, 0.99415
*CLoad
pipe-1-1.704, 2, -1.86528e-005
*CLoad
pipe-1-1.704, 3, -2.42278e-007
*CLoad
pipe-1-1.705, 1, 0.956928
*CLoad
pipe-1-1.705, 2, -0.280548
*CLoad
pipe-1-1.705, 3, 1.72567e-007
*CLoad
pipe-1-1.706, 1, 0.841142
*CLoad
pipe-1-1.706, 2, -0.541028
*CLoad
pipe-1-1.706, 3, -2.81675e-007
*CLoad
pipe-1-1.707, 1, 0.6504
*CLoad
pipe-1-1.707, 2, -0.751264
*CLoad
pipe-1-1.707, 3, -1.50255e-008
*CLoad
pipe-1-1.708, 1, 0.414872
*CLoad
pipe-1-1.708, 2, -0.907414
*CLoad
pipe-1-1.708, 3, 8.67981e-008
*CLoad
pipe-1-1.709, 1, 0.141841
*CLoad
pipe-1-1.709, 2, -0.986607
*CLoad
pipe-1-1.709, 3, -2.33236e-007
*CLoad
pipe-1-1.710, 1, -0.141843
*CLoad
pipe-1-1.710, 2, -0.986607
*CLoad
pipe-1-1.710, 3, 2.37329e-007
*CLoad
pipe-1-1.711, 1, -0.414869
*CLoad
pipe-1-1.711, 2, -0.907416
*CLoad
pipe-1-1.711, 3, -1.01466e-007
*CLoad
pipe-1-1.712, 1, -0.650402
*CLoad
pipe-1-1.712, 2, -0.751262
*CLoad
pipe-1-1.712, 3, -1.04225e-008
*CLoad
pipe-1-1.713, 1, -0.84114
*CLoad
pipe-1-1.713, 2, -0.541032
*CLoad
pipe-1-1.713, 3, 2.81017e-007
*CLoad
pipe-1-1.714, 1, -0.956929
*CLoad
pipe-1-1.714, 2, -0.280549
*CLoad
pipe-1-1.714, 3, -1.63543e-007
*CLoad
pipe-1-1.715, 1, -0.994151
*CLoad
pipe-1-1.715, 2, -1.85611e-005
*CLoad
pipe-1-1.715, 3, -2.0909e-007
*CLoad
pipe-1-1.716, 1, -0.957151
*CLoad
pipe-1-1.716, 2, 0.280636
*CLoad
pipe-1-1.716, 3, -1.37864e-010
*CLoad
pipe-1-1.717, 1, -0.84092
*CLoad
pipe-1-1.717, 2, 0.540921
*CLoad
pipe-1-1.717, 3, -1.42258e-012
*CLoad
pipe-1-1.718, 1, -0.65047
*CLoad
pipe-1-1.718, 2, 0.7513
*CLoad
pipe-1-1.718, 3, 3.05379e-012
*CLoad
pipe-1-1.719, 1, -0.414871
*CLoad
pipe-1-1.719, 2, 0.907421
*CLoad
pipe-1-1.719, 3, 3.90926e-012
*CLoad
pipe-1-1.720, 1, -0.141843
*CLoad
pipe-1-1.720, 2, 0.986607
*CLoad
pipe-1-1.720, 3, 1.22164e-012
*CLoad
pipe-1-1.721, 1, 0.141841
*CLoad
pipe-1-1.721, 2, 0.986607
*CLoad
pipe-1-1.721, 3, 6.6999e-012
*CLoad
pipe-1-1.722, 1, 0.414874
*CLoad
pipe-1-1.722, 2, 0.90742
*CLoad
pipe-1-1.722, 3, -3.32868e-012
*CLoad
pipe-1-1.723, 1, 0.650468
*CLoad
pipe-1-1.723, 2, 0.751301
*CLoad
pipe-1-1.723, 3, -1.9347e-012
*CLoad
pipe-1-1.724, 1, 0.840921
*CLoad
pipe-1-1.724, 2, 0.540917
*CLoad
pipe-1-1.724, 3, 3.1477e-012
*CLoad
pipe-1-1.725, 1, 0.95715
*CLoad
pipe-1-1.725, 2, 0.280635
*CLoad
pipe-1-1.725, 3, 6.6678e-011
*CLoad
pipe-1-1.726, 1, 0.99415
*CLoad
pipe-1-1.726, 2, -1.86528e-005
*CLoad
pipe-1-1.726, 3, 2.42771e-007
*CLoad
pipe-1-1.727, 1, 0.956488
*CLoad
pipe-1-1.727, 2, -0.280414
*CLoad
pipe-1-1.727, 3, -9.29005e-008
*CLoad
pipe-1-1.728, 1, 0.840784
*CLoad
pipe-1-1.728, 2, -0.540805
*CLoad
pipe-1-1.728, 3, 1.69842e-007
*CLoad
pipe-1-1.729, 1, 0.650064
*CLoad
pipe-1-1.729, 2, -0.750887
*CLoad
pipe-1-1.729, 3, 3.99556e-008
*CLoad
pipe-1-1.730, 1, 0.414684
*CLoad
pipe-1-1.730, 2, -0.906997
*CLoad
pipe-1-1.730, 3, -9.83337e-008
*CLoad
pipe-1-1.731, 1, 0.141774
*CLoad
pipe-1-1.731, 2, -0.986147
*CLoad
pipe-1-1.731, 3, 2.2485e-007
*CLoad
pipe-1-1.732, 1, -0.141776
*CLoad
pipe-1-1.732, 2, -0.986147
*CLoad
pipe-1-1.732, 3, -2.28116e-007
*CLoad
pipe-1-1.733, 1, -0.414681
*CLoad
pipe-1-1.733, 2, -0.906999
*CLoad
pipe-1-1.733, 3, 1.07881e-007
*CLoad
pipe-1-1.734, 1, -0.650066
*CLoad
pipe-1-1.734, 2, -0.750885
*CLoad
pipe-1-1.734, 3, -1.44207e-008
*CLoad
pipe-1-1.735, 1, -0.840782
*CLoad
pipe-1-1.735, 2, -0.540808
*CLoad
pipe-1-1.735, 3, -1.68873e-007
*CLoad
pipe-1-1.736, 1, -0.956489
*CLoad
pipe-1-1.736, 2, -0.280415
*CLoad
pipe-1-1.736, 3, 8.46048e-008
*CLoad
pipe-1-1.737, 1, -0.993662
*CLoad
pipe-1-1.737, 2, -1.87553e-005
*CLoad
pipe-1-1.737, 3, 2.51112e-007
*CLoad
pipe-1-1.738, 1, -0.956713
*CLoad
pipe-1-1.738, 2, 0.280503
*CLoad
pipe-1-1.738, 3, -5.72454e-011
*CLoad
pipe-1-1.739, 1, -0.840558
*CLoad
pipe-1-1.739, 2, 0.540695
*CLoad
pipe-1-1.739, 3, -1.40922e-012
*CLoad
pipe-1-1.740, 1, -0.650136
*CLoad
pipe-1-1.740, 2, 0.750923
*CLoad
pipe-1-1.740, 3, 3.0347e-012
*CLoad
pipe-1-1.741, 1, -0.414684
*CLoad
pipe-1-1.741, 2, 0.907005
*CLoad
pipe-1-1.741, 3, 2.62766e-012
*CLoad
pipe-1-1.742, 1, -0.141776
*CLoad
pipe-1-1.742, 2, 0.986146
*CLoad
pipe-1-1.742, 3, 1.8223e-012
*CLoad
pipe-1-1.743, 1, 0.141774
*CLoad
pipe-1-1.743, 2, 0.986147
*CLoad
pipe-1-1.743, 3, 6.64919e-012
*CLoad
pipe-1-1.744, 1, 0.414686
*CLoad
pipe-1-1.744, 2, 0.907003
*CLoad
pipe-1-1.744, 3, -3.31547e-012
*CLoad
pipe-1-1.745, 1, 0.650134
*CLoad
pipe-1-1.745, 2, 0.750925
*CLoad
pipe-1-1.745, 3, -1.92186e-012
*CLoad
pipe-1-1.746, 1, 0.84056
*CLoad
pipe-1-1.746, 2, 0.540692
*CLoad
pipe-1-1.746, 3, 3.12626e-012
*CLoad
pipe-1-1.747, 1, 0.956712
*CLoad
pipe-1-1.747, 2, 0.280502
*CLoad
pipe-1-1.747, 3, 7.1514e-011
*CLoad
pipe-1-1.748, 1, 0.993662
*CLoad
pipe-1-1.748, 2, -1.88164e-005
*CLoad
pipe-1-1.748, 3, -2.1833e-007
*CLoad
pipe-1-1.749, 1, 0.956862
*CLoad
pipe-1-1.749, 2, -0.28052
*CLoad
pipe-1-1.749, 3, 2.4457e-007
*CLoad
pipe-1-1.750, 1, 0.84111
*CLoad
pipe-1-1.750, 2, -0.541021
*CLoad
pipe-1-1.750, 3, -1.24866e-008
*CLoad
pipe-1-1.751, 1, 0.650301
*CLoad
pipe-1-1.751, 2, -0.751161
*CLoad
pipe-1-1.751, 3, -1.78566e-007
*CLoad
pipe-1-1.752, 1, 0.414846
*CLoad
pipe-1-1.752, 2, -0.907354
*CLoad
pipe-1-1.752, 3, 8.35935e-009
*CLoad
pipe-1-1.753, 1, 0.141833
*CLoad
pipe-1-1.753, 2, -0.986528
*CLoad
pipe-1-1.753, 3, 1.51188e-007
*CLoad
pipe-1-1.754, 1, -0.141834
*CLoad
pipe-1-1.754, 2, -0.986525
*CLoad
pipe-1-1.754, 3, 1.01138e-008
*CLoad
pipe-1-1.755, 1, -0.414845
*CLoad
pipe-1-1.755, 2, -0.907359
*CLoad
pipe-1-1.755, 3, -1.01906e-007
*CLoad
pipe-1-1.756, 1, -0.650293
*CLoad
pipe-1-1.756, 2, -0.751153
*CLoad
pipe-1-1.756, 3, 1.03668e-007
*CLoad
pipe-1-1.757, 1, -0.841128
*CLoad
pipe-1-1.757, 2, -0.541033
*CLoad
pipe-1-1.757, 3, -1.94213e-007
*CLoad
pipe-1-1.758, 1, -0.956849
*CLoad
pipe-1-1.758, 2, -0.280516
*CLoad
pipe-1-1.758, 3, 1.05095e-007
*CLoad
pipe-1-1.759, 1, -0.994049
*CLoad
pipe-1-1.759, 2, -1.94194e-005
*CLoad
pipe-1-1.759, 3, 8.08549e-007
*CLoad
pipe-1-1.760, 1, -0.957078
*CLoad
pipe-1-1.760, 2, 0.280605
*CLoad
pipe-1-1.760, 3, 5.36022e-008
*CLoad
pipe-1-1.761, 1, -0.840893
*CLoad
pipe-1-1.761, 2, 0.540915
*CLoad
pipe-1-1.761, 3, -7.37457e-008
*CLoad
pipe-1-1.762, 1, -0.650372
*CLoad
pipe-1-1.762, 2, 0.751197
*CLoad
pipe-1-1.762, 3, 6.63787e-009
*CLoad
pipe-1-1.763, 1, -0.414846
*CLoad
pipe-1-1.763, 2, 0.907363
*CLoad
pipe-1-1.763, 3, -9.86441e-008
*CLoad
pipe-1-1.764, 1, -0.141834
*CLoad
pipe-1-1.764, 2, 0.986526
*CLoad
pipe-1-1.764, 3, 1.70826e-008
*CLoad
pipe-1-1.765, 1, 0.141833
*CLoad
pipe-1-1.765, 2, 0.986527
*CLoad
pipe-1-1.765, 3, 1.31228e-007
*CLoad
pipe-1-1.766, 1, 0.414849
*CLoad
pipe-1-1.766, 2, 0.907361
*CLoad
pipe-1-1.766, 3, -1.45425e-008
*CLoad
pipe-1-1.767, 1, 0.650369
*CLoad
pipe-1-1.767, 2, 0.751198
*CLoad
pipe-1-1.767, 3, -6.99037e-008
*CLoad
pipe-1-1.768, 1, 0.840896
*CLoad
pipe-1-1.768, 2, 0.540912
*CLoad
pipe-1-1.768, 3, -2.5061e-007
*CLoad
pipe-1-1.769, 1, 0.957077
*CLoad
pipe-1-1.769, 2, 0.280604
*CLoad
pipe-1-1.769, 3, 1.59549e-007
*CLoad
pipe-1-1.770, 1, 0.994045
*CLoad
pipe-1-1.770, 2, -1.82728e-005
*CLoad
pipe-1-1.770, 3, 3.94568e-007
*CLoad
pipe-1-1.771, 1, 0.955343
*CLoad
pipe-1-1.771, 2, -0.280079
*CLoad
pipe-1-1.771, 3, 4.50327e-006
*CLoad
pipe-1-1.772, 1, 0.839724
*CLoad
pipe-1-1.772, 2, -0.54013
*CLoad
pipe-1-1.772, 3, -2.88401e-006
*CLoad
pipe-1-1.773, 1, 0.649247
*CLoad
pipe-1-1.773, 2, -0.749944
*CLoad
pipe-1-1.773, 3, -1.84708e-005
*CLoad
pipe-1-1.774, 1, 0.414174
*CLoad
pipe-1-1.774, 2, -0.905883
*CLoad
pipe-1-1.774, 3, 9.4945e-006
*CLoad
pipe-1-1.775, 1, 0.141601
*CLoad
pipe-1-1.775, 2, -0.984923
*CLoad
pipe-1-1.775, 3, -1.10855e-006
*CLoad
pipe-1-1.776, 1, -0.141604
*CLoad
pipe-1-1.776, 2, -0.984927
*CLoad
pipe-1-1.776, 3, -4.30236e-006
*CLoad
pipe-1-1.777, 1, -0.414164
*CLoad
pipe-1-1.777, 2, -0.905873
*CLoad
pipe-1-1.777, 3, 8.69803e-007
*CLoad
pipe-1-1.778, 1, -0.649228
*CLoad
pipe-1-1.778, 2, -0.749932
*CLoad
pipe-1-1.778, 3, -1.10634e-005
*CLoad
pipe-1-1.779, 1, -0.839806
*CLoad
pipe-1-1.779, 2, -0.54018
*CLoad
pipe-1-1.779, 3, -3.03665e-007
*CLoad
pipe-1-1.780, 1, -0.955256
*CLoad
pipe-1-1.780, 2, -0.280044
*CLoad
pipe-1-1.780, 3, -1.37447e-006
*CLoad
pipe-1-1.781, 1, -0.992438
*CLoad
pipe-1-1.781, 2, -2.23325e-005
*CLoad
pipe-1-1.781, 3, 2.86589e-005
*CLoad
pipe-1-1.782, 1, -0.955528
*CLoad
pipe-1-1.782, 2, 0.280153
*CLoad
pipe-1-1.782, 3, -3.85106e-006
*CLoad
pipe-1-1.783, 1, -0.839539
*CLoad
pipe-1-1.783, 2, 0.540042
*CLoad
pipe-1-1.783, 3, -1.84425e-006
*CLoad
pipe-1-1.784, 1, -0.649306
*CLoad
pipe-1-1.784, 2, 0.749974
*CLoad
pipe-1-1.784, 3, -1.59706e-005
*CLoad
pipe-1-1.785, 1, -0.414169
*CLoad
pipe-1-1.785, 2, 0.905883
*CLoad
pipe-1-1.785, 3, 9.24301e-006
*CLoad
pipe-1-1.786, 1, -0.141604
*CLoad
pipe-1-1.786, 2, 0.984926
*CLoad
pipe-1-1.786, 3, -8.07148e-006
*CLoad
pipe-1-1.787, 1, 0.141602
*CLoad
pipe-1-1.787, 2, 0.984926
*CLoad
pipe-1-1.787, 3, -4.35912e-006
*CLoad
pipe-1-1.788, 1, 0.414173
*CLoad
pipe-1-1.788, 2, 0.905882
*CLoad
pipe-1-1.788, 3, 4.28769e-006
*CLoad
pipe-1-1.789, 1, 0.6493
*CLoad
pipe-1-1.789, 2, 0.749973
*CLoad
pipe-1-1.789, 3, -1.44629e-005
*CLoad
pipe-1-1.790, 1, 0.839551
*CLoad
pipe-1-1.790, 2, 0.540046
*CLoad
pipe-1-1.790, 3, -3.2826e-006
*CLoad
pipe-1-1.791, 1, 0.955521
*CLoad
pipe-1-1.791, 2, 0.280147
*CLoad
pipe-1-1.791, 3, 4.4087e-006
*CLoad
pipe-1-1.792, 1, 0.992409
*CLoad
pipe-1-1.792, 2, -1.40241e-005
*CLoad
pipe-1-1.792, 3, 1.40451e-005
** 
** OUTPUT REQUESTS
** 
*Restart, write, frequency=0
** 
** FIELD OUTPUT: F-Output-1
** 
*Output, field
*Node Output
CF, RF, TF, U
*Element Output, directions=YES
LE, NFORC, P, PE, PEEQ, PEMAG, S, SF
*Contact Output
CDISP, CSTRESS
** 
** HISTORY OUTPUT: H-Output-1
** 
*Output, history, variable=PRESELECT
*End Step
**Nodal Pressure
