*Heading
** Job name: airfoil_2 Model name: Model-2
** Generated by: Abaqus/CAE 2018
*Preprint, echo=NO, model=NO, history=NO, contact=NO
**
** PARTS
**
*Part, name=Part-1
*Node
      1,           2., 0.00260000001,           1.
      2,           2., -0.00260000001,           1.
      3,           2., -0.00260000001,           0.
      4,           2., 0.00260000001,           0.
      5,   1.90468264, 0.0281817466,           1.
      6,   1.80892932, 0.0520724319,           1.
      7,   1.71274674, 0.0741784498,           1.
      8,   1.61618531, 0.0945621356,           1.
      9,   1.51927114,  0.113196097,           1.
     10,   1.42205286,  0.130171552,           1.
     11,   1.32457578,  0.145599976,           1.
     12,    1.2268486,  0.159353048,           1.
     13,   1.12887418,  0.171204045,           1.
     14,   1.03068268,  0.181102887,           1.
     15,  0.932315409,  0.189061314,           1.
     16,  0.833788514,  0.194706872,           1.
     17,  0.735139549,  0.197427452,           1.
     18,  0.636458993,  0.196564466,           1.
     19,  0.537909508,  0.191437021,           1.
     20,  0.439731479,  0.181502476,           1.
** ... 453 like lines cut
*Element, type=S4
  1, 102, 105,   5,   1
  2, 105, 106,   6,   5
  3, 106, 107,   7,   6
  4, 107, 108,   8,   7
  5, 108, 109,   9,   8
  6, 109, 110,  10,   9
  7, 110, 111,  11,  10
  8, 111, 112,  12,  11
  9, 112, 113,  13,  12
 10, 113, 114,  14,  13
 11, 114, 115,  15,  14
 12, 115, 116,  16,  15
 13, 116, 117,  17,  16
 14, 117, 118,  18,  17
 15, 118, 119,  19,  18
 16, 119, 120,  20,  19
 17, 120, 121,  21,  20
 18, 121, 122,  22,  21
 19, 122, 123,  23,  22
 20, 123, 124,  24,  23
** ... 410 like lines cut
*Nset, nset=_PickedSet16, internal, generate
   1,  473,    1
*Elset, elset=_PickedSet16, internal, generate
   1,  430,    1
** Section: Section-1
*Shell Section, elset=_PickedSet16, material=Material-1
0.01, 5
*End Part
**  
**
** ASSEMBLY
**
*Assembly, name=Assembly
**  
*Instance, name=Part-1-1, part=Part-1
*End Instance
**  
*Nset, nset=_PickedSet11, internal, instance=Part-1-1
  1,  2,  3,  4,  5,  6,  7,  8,  9, 10, 11, 12, 13, 14, 15, 16
 17, 18, 19, 20, 21, 22, 23, 24, 25, 26, 27, 28, 29, 30, 31, 32
 33, 34, 35, 36, 37, 38, 39, 40, 41, 42, 43, 44, 54, 55, 56, 57
 58, 59, 60, 61, 62, 63, 64, 65, 66, 67, 68, 69, 70, 71, 72, 73
 74, 75, 76, 77, 78, 79, 80, 81, 82, 83, 84, 85, 86, 87, 88, 89
 90, 91, 92, 93
*Elset, elset=_PickedSet11, internal, instance=Part-1-1
   1,   2,   3,   4,   5,   6,   7,   8,   9,  10,  11,  12,  13,  14,  15,  16
  17,  18,  19,  20,  21,  22,  23,  24,  25,  26,  27,  28,  29,  30,  31,  32
  33,  34,  35,  36,  37,  38,  39,  40,  41, 370, 371, 372, 373, 374, 375, 376
 377, 378, 379, 380, 381, 382, 383, 384, 385, 386, 387, 388, 389, 390, 391, 392
 393, 394, 395, 396, 397, 398, 399, 400, 401, 402, 403, 404, 405, 406, 407, 408
 409, 410
*Elset, elset=__PickedSurf18_SPOS, internal, instance=Part-1-1, generate
   1,  430,    1
*Surface, type=ELEMENT, name=_PickedSurf18, internal
__PickedSurf18_SPOS, SPOS
*End Assembly
** 
** MATERIALS
** 
*Material, name=Material-1
*Density
2700.,
*Elastic
 7e+10, 0.3
** ----------------------------------------------------------------
** 
** STEP: Step-1
** 
*Step, name=Step-1, nlgeom=NO
*Static
1., 1., 1e-05, 1.
** 
** BOUNDARY CONDITIONS
** 
** Name: BC-1 Type: Displacement/Rotation
*Boundary
_PickedSet11, 1, 1
_PickedSet11, 2, 2
_PickedSet11, 3, 3
_PickedSet11, 4, 4
_PickedSet11, 5, 5
_PickedSet11, 6, 6
** 
** LOADS
** 
** Name: Load-1   Type: Pressure
*Dsload, EXTFILE=starccm
_PickedSurf18, D:\Sources\ICARUS_Models\CFD\airfoil\airfoil_naca4412
** 
** OUTPUT REQUESTS
** 
*Restart, write, frequency=0
** 
** FIELD OUTPUT: F-Output-1
** 
*Output, field
*Node Output
CF, RF, U
*Element Output, directions=YES
EEQUT, LE, MVF, P, PE, PEEQ, PEMAG, S, SEQUT, TE, TEEQ, TEVOL
*Contact Output
CDISP, CSTRESS
** 
** HISTORY OUTPUT: H-Output-1
** 
*Output, history, variable=PRESELECT
*End Step
