*Heading
** Job name: pipe_model Model name: StructureModel
** Generated by: Abaqus/CAE 6.10-1
*Preprint, echo=NO, model=NO, history=NO, contact=NO
**
** PARTS
**
*Part, name=pipe
*Node
      1,           0., 0.0500000007,          0.5
      2,           0., 0.0500000007,           0.
      3, 0.0500000007,           0.,           0.
      4, 0.0500000007,           0.,          0.5
      5,           0., 0.0599999987,           0.
      6, 0.0599999987,           0.,           0.
      7, 0.0599999987,           0.,          0.5
      8,           0., 0.0599999987,          0.5
      9,           0., -0.0500000007,           0.
     10,           0., -0.0500000007,          0.5
     11,           0., -0.0599999987,          0.5
     12,           0., -0.0599999987,           0.
     13, -0.0500000007,           0.,           0.
     14, -0.0500000007,           0.,          0.5
     15, -0.0599999987,           0.,           0.
     16, -0.0599999987,           0.,          0.5
     17,           0., 0.0500000007,  0.484848499
     18,           0., 0.0500000007,  0.469696969
     19,           0., 0.0500000007,  0.454545468
     20,           0., 0.0500000007,  0.439393938
** ... 1612 like lines cut
*Element, type=C3D8I
  1,   8, 122, 513, 160,   1,  17, 353,  90
  2, 122, 121, 514, 513,  17,  18, 354, 353
  3, 121, 120, 515, 514,  18,  19, 355, 354
  4, 120, 119, 516, 515,  19,  20, 356, 355
  5, 119, 118, 517, 516,  20,  21, 357, 356
  6, 118, 117, 518, 517,  21,  22, 358, 357
  7, 117, 116, 519, 518,  22,  23, 359, 358
  8, 116, 115, 520, 519,  23,  24, 360, 359
  9, 115, 114, 521, 520,  24,  25, 361, 360
 10, 114, 113, 522, 521,  25,  26, 362, 361
 11, 113, 112, 523, 522,  26,  27, 363, 362
 12, 112, 111, 524, 523,  27,  28, 364, 363
 13, 111, 110, 525, 524,  28,  29, 365, 364
 14, 110, 109, 526, 525,  29,  30, 366, 365
 15, 109, 108, 527, 526,  30,  31, 367, 366
 16, 108, 107, 528, 527,  31,  32, 368, 367
 17, 107, 106, 529, 528,  32,  33, 369, 368
 18, 106, 105, 530, 529,  33,  34, 370, 369
 19, 105, 104, 531, 530,  34,  35, 371, 370
 20, 104, 103, 532, 531,  35,  36, 372, 371
** ... 772 like lines cut
*Nset, nset=_PickedSet9, internal, generate
    1,  1632,     1
*Elset, elset=_PickedSet9, internal, generate
   1,  792,    1
*Nset, nset=x_fixed
   6,   7, 128, 129, 130, 131, 132, 133, 134, 135, 136, 137, 138, 139, 140, 141
 142, 143, 144, 145, 146, 147, 148, 149, 150, 151, 152, 153, 154, 155, 156, 157
 158, 159
*Nset, nset=y_fixed
   5,   8,  91,  92,  93,  94,  95,  96,  97,  98,  99, 100, 101, 102, 103, 104
 105, 106, 107, 108, 109, 110, 111, 112, 113, 114, 115, 116, 117, 118, 119, 120
 121, 122
** Section: solid_steel
*Solid Section, elset=_PickedSet9, material=steel
,
*End Part
**  
**
** ASSEMBLY
**
*Assembly, name=Assembly
**  
*Instance, name=pipe-1, part=pipe
*End Instance
**  
*Nset, nset=_PickedSet11, internal, instance=pipe-1
    5,    6,    7,    8,   11,   12,   15,   16,   91,   92,   93,   94,   95,   96,   97,   98
   99,  100,  101,  102,  103,  104,  105,  106,  107,  108,  109,  110,  111,  112,  113,  114
  115,  116,  117,  118,  119,  120,  121,  122,  123,  124,  125,  126,  127,  128,  129,  130
  131,  132,  133,  134,  135,  136,  137,  138,  139,  140,  141,  142,  143,  144,  145,  146
  147,  148,  149,  150,  151,  152,  153,  154,  155,  156,  157,  158,  159,  160,  161,  162
  163,  164,  207,  208,  209,  210,  211,  212,  213,  214,  215,  216,  217,  218,  219,  220
  221,  222,  223,  224,  225,  226,  227,  228,  229,  230,  231,  232,  233,  234,  235,  236
  237,  238,  239,  240,  241,  242,  243,  244,  245,  246,  247,  248,  291,  292,  293,  294
  295,  296,  297,  298,  299,  300,  301,  302,  303,  304,  305,  306,  307,  308,  309,  310
  311,  312,  313,  314,  315,  316,  317,  318,  319,  320,  321,  322,  323,  324,  325,  326
  327,  328,  329,  330,  331,  332,  343,  344,  345,  346,  347,  348,  349,  350,  351,  352
  513,  514,  515,  516,  517,  518,  519,  520,  521,  522,  523,  524,  525,  526,  527,  528
  529,  530,  531,  532,  533,  534,  535,  536,  537,  538,  539,  540,  541,  542,  543,  544
  545,  546,  547,  548,  549,  550,  551,  552,  553,  554,  555,  556,  557,  558,  559,  560
  561,  562,  563,  564,  565,  566,  567,  568,  569,  570,  571,  572,  573,  574,  575,  576
  577,  578,  579,  580,  581,  582,  583,  584,  585,  586,  587,  588,  589,  590,  591,  592
  593,  594,  595,  596,  597,  598,  599,  600,  601,  602,  603,  604,  605,  606,  607,  608
  609,  610,  611,  612,  613,  614,  615,  616,  617,  618,  619,  620,  621,  622,  623,  624
  625,  626,  627,  628,  629,  630,  631,  632,  633,  634,  635,  636,  637,  638,  639,  640
  641,  642,  643,  644,  645,  646,  647,  648,  649,  650,  651,  652,  653,  654,  655,  656
** ... 31 like lines cut
*Elset, elset=_PickedSet11, internal, instance=pipe-1, generate
   1,  792,    1
*Nset, nset=_PickedSet12, internal, instance=pipe-1
   1,   2,   3,   4,   5,   6,   7,   8,   9,  10,  11,  12,  13,  14,  15,  16
  49,  50,  51,  52,  53,  86,  87,  88,  89,  90, 123, 124, 125, 126, 127, 160
 161, 162, 163, 164, 197, 198, 199, 200, 201, 202, 203, 204, 205, 206, 239, 240
 241, 242, 243, 244, 245, 246, 247, 248, 249, 250, 251, 252, 253, 286, 287, 288
 289, 290, 291, 292, 293, 294, 295, 328, 329, 330, 331, 332, 333, 334, 335, 336
 337, 338, 339, 340, 341, 342, 343, 344, 345, 346, 347, 348, 349, 350, 351, 352
*Elset, elset=_PickedSet12, internal, instance=pipe-1
   1,  33,  34,  66,  67,  99, 100, 132, 133, 165, 166, 198, 199, 231, 232, 264
 265, 297, 298, 330, 331, 363, 364, 396, 397, 429, 430, 462, 463, 495, 496, 528
 529, 561, 562, 594, 595, 627, 628, 660, 661, 693, 694, 726, 727, 759, 760, 792
*Elset, elset=__PickedSurf4_S2, internal, instance=pipe-1, generate
   1,  792,    1
*Surface, type=ELEMENT, name=_PickedSurf4, internal
__PickedSurf4_S2, S2
*End Assembly
** 
** MATERIALS
** 
*Material, name=steel
*Elastic
 2.15e+09, 0.28
** ----------------------------------------------------------------
** 
** STEP: static
** 
*Step, name=static
*Static, direct
0.1, 1., 
** 
** BOUNDARY CONDITIONS
** 
** Name: fixed_wall Type: Displacement/Rotation
*Boundary
_PickedSet11, 1, 1
_PickedSet11, 2, 2
** Name: z-dir Type: Displacement/Rotation
*Boundary
_PickedSet12, 3, 3
** 
** LOADS
** 
** Name: Load-1   Type: Pressure
*Dsload
_PickedSurf4, P, 1.
** 
** OUTPUT REQUESTS
** 
*Restart, write, frequency=0
** 
** FIELD OUTPUT: F-Output-1
** 
*Output, field
*Node Output
CF, RF, TF, U
*Element Output, directions=YES
LE, NFORC, P, PE, PEEQ, PEMAG, S, SF
*Contact Output
CDISP, CSTRESS
** 
** HISTORY OUTPUT: H-Output-1
** 
*Output, history, variable=PRESELECT
*End Step
