*Heading
** Job name: 3hs_manifold Model name: 3hs_exhaust_manifold
** Generated by: Abaqus/CAE 6.10-1
*Preprint, echo=NO, model=NO, history=NO, contact=NO
**
** PARTS
**
*Part, name=PART-1
*Node
      1,          12.,   4.09100008,  0.150710002
      2,          12.,    4.6880002,  -4.75600004
      3,          12.,   6.44299984,  -9.37699986
      4,          12.,   17.3299999,  -19.0200005
      5,          12.,   22.1289997,  -20.2000008
      6,          12.,   36.2490005,  -16.7199993
      7,          12.,   39.9490013,  -13.4499998
      8,          12.,   44.5099983,  -4.75600004
      9,   17.0109997,   44.9539986,  0.140499994
     10,   22.0160007,       44.743, -0.035149999
     11,   27.0009995,   44.4609985, -0.475899994
     12,   31.9290009,   44.0960007,  -1.30499995
     13,   45.2220001,   42.3279991,  -7.69799995
     14,   48.5299988,   41.4819984,  -11.3599997
     15,    53.605999,   39.4580002,       -19.75
     16,   55.7010002,   38.2960014,  -24.1499996
     17,   57.6710014,   37.0359993,  -28.5900002
     18,   61.5870018,   34.2010002,  -37.3699989
     19,   63.6689987,   32.6080017,  -41.6399994
     20,   65.9160004,   30.8920002,  -45.7799988
** ... 13800 like lines cut
*Element, type=DC3D6
1, 2169, 2172, 2170, 2404, 2406, 2405
2, 2181, 2186, 2182, 2407, 2409, 2408
117, 2404, 2406, 2405, 2545, 2547, 2546
118, 2407, 2409, 2408, 2548, 2550, 2549
233,  253, 2731, 2730, 4915, 7422, 4916
234, 2732,  258,  271, 7409, 4917, 7421
235, 2733,  309, 2734, 7984, 4918, 7968
236, 2735, 2737, 2736, 7908, 4919, 7910
237, 2737, 2738, 2736, 4919, 7907, 7910
238,  787, 2739,  775, 4920, 7912, 7911
239,  305,  794,  213, 7445, 7927, 4921
240, 2740, 2742, 2741, 4922, 7931, 7932
241, 2743, 2745, 2744, 4923, 7947, 4924
242,  309,  310, 2746, 4918, 7449, 7682
243, 1101, 1056, 1098, 8254, 8205, 8250
244, 2747, 2748,  521, 8278, 7670, 4925
245, 1368, 1365, 1366, 4926, 4927, 8540
246,  521,  522, 2749, 4925, 4928, 8566
247,   42, 2751, 2750, 7203, 9002, 7202
248, 1820, 2753, 2752, 4929, 8988, 8986
** ... 262 like lines cut
*Element, type=DC3D8
  3, 2107, 2174, 2128, 2108, 2410, 2413, 2412, 2411
  4, 2128, 2129, 2109, 2108, 2412, 2415, 2414, 2411
  5, 2129, 2130, 2110, 2109, 2415, 2417, 2416, 2414
  6, 2130, 2131, 2111, 2110, 2417, 2419, 2418, 2416
  7, 2106, 2175, 2174, 2107, 2420, 2421, 2413, 2410
  8, 2105, 2173, 2175, 2106, 2422, 2423, 2421, 2420
  9, 2104, 2132, 2173, 2105, 2424, 2425, 2423, 2422
 10, 2103, 2133, 2132, 2104, 2426, 2427, 2425, 2424
 11, 2131, 2134, 2112, 2111, 2419, 2429, 2428, 2418
 12, 2102, 2135, 2133, 2103, 2430, 2431, 2427, 2426
 13, 2134, 2009, 2051, 2112, 2429, 2707, 2432, 2428
 14, 2009, 2010, 2052, 2051, 2707, 2708, 2433, 2432
 15, 2134, 2136, 4842, 2009, 2429, 2435, 2434, 2707
 16, 2120, 2053, 2052, 2010, 4886, 2436, 2433, 2708
 17, 2136, 2137, 4844, 4842, 2435, 2438, 2437, 2434
 18, 2011, 2054, 2053, 2120, 4887, 2439, 2436, 4886
 19, 2012, 2055, 2054, 2011, 2440, 2441, 2439, 4887
 20, 2119, 2056, 2055, 2012, 2442, 2443, 2441, 2440
 21, 2704, 2057, 2056, 2119, 2709, 2444, 2443, 2442
 22, 4807, 2058, 2057, 2704, 4888, 2445, 2444, 2709
** ... 7430 like lines cut
*Elset, elset=PART-1-1_PSOLID_3, generate
    1,  7732,     1
** Section: Section-1-PART-1-1_PSOLID_3
*Solid Section, elset=PART-1-1_PSOLID_3, material=CHROMIUM
,
*End Part
**  
**
** ASSEMBLY
**
*Assembly, name=Assembly
**  
*Instance, name=PART-1-1, part=PART-1
*End Instance
**  
*Nset, nset=_M5, internal, instance=PART-1-1
 11802, 11803, 11979, 11980, 11981, 11982, 11983, 11984, 11988, 11989, 11990, 11991, 11992, 11993, 11994, 11995
 11996, 11997, 11998, 12003, 12004, 12005, 12006, 12007, 12008, 12009, 12010, 12011, 12012, 12013, 12014, 12015
 12016, 12017, 12018, 12019, 12020, 12028, 12029, 12030, 12031, 12032, 12033, 12034, 12035, 12036, 12037, 12038
 12039, 12040, 12041, 12042, 12053, 12054, 12055, 12056, 12057, 12058, 12059, 12060, 12061, 12062, 12063, 12064
 12065, 12066, 12067, 12068, 12069, 12070, 12071, 12072, 12073, 12074, 12075, 12076, 12077, 12078, 12079, 12080
 12081, 12082, 12083, 12084, 12085, 12086, 12087, 12088, 12089, 12107, 12108, 12109, 12110, 12111, 12112, 12113
 12114, 12115, 12116, 12117, 12118, 12119, 12120, 12121, 12122, 12123, 12124, 12125, 12126, 12127, 12128, 12129
 12130, 12131, 12132, 12133, 12134, 12135, 12136, 12137, 12138, 12139, 12140, 12141, 12188, 12191, 12216, 12222
 12293, 12349, 12360, 12384, 13681, 13682, 13683, 13684, 13685, 13686, 13687, 13688, 13689, 13690, 13691, 13692
 13693, 13694, 13695, 13696, 13697, 13698, 13699, 13700, 13701, 13702, 13703, 13704, 13705, 13706, 13707, 13708
 13709, 13710, 13711, 13712, 13713, 13714, 13715, 13716, 13717, 13718, 13719, 13720, 13721, 13722, 13723, 13724
 13725, 13726, 13727, 13728, 13729, 13730, 13731, 13732, 13733, 13734, 13735, 13736, 13737, 13738, 13739, 13740
 13741, 13742, 13743, 13744, 13745, 13746, 13747, 13748, 13749, 13750, 13751, 13752, 13753, 13754, 13755, 13756
 13757, 13758, 13759, 13760, 13761, 13762, 13763, 13764, 13765, 13766, 13767, 13768, 13769, 13770, 13771, 13772
 13773, 13774, 13775, 13776, 13777, 13778, 13779, 13780, 13781, 13782, 13783, 13784, 13785, 13786, 13787, 13788
 13789, 13790, 13791, 13792, 13793, 13794, 13795, 13796, 13797, 13798, 13799, 13800, 13801, 13802, 13803, 13804
 13805, 13806, 13807, 13808, 13809, 13810, 13811, 13812, 13813, 13814, 13815, 13816, 13817, 13818, 13819, 13820
*Elset, elset=ALL_3DSOLID, instance=PART-1-1, generate
    1,  7732,     1
*Elset, elset=ALL_MASSIVE_ELEMENTS, instance=PART-1-1, generate
    1,  7732,     1
*Elset, elset=__PICKEDSURF8_S2, internal, instance=PART-1-1
  233,  234,  235,  236,  237,  238,  239,  240,  241,  242,  243,  244,  245,  246,  247,  248
  249,  250,  251,  252,  253,  254,  255,  256,  257,  258,  259,  260,  261,  262,  263,  264
  265,  266,  267,  268,  269,  270,  271,  272,  273,  274,  275,  276,  277,  278,  279,  280
  281,  282,  283,  284,  285,  286,  287,  288,  289,  290,  291,  292,  293,  294,  295,  296
  297,  298,  299,  300,  301,  302,  303,  304,  305,  306,  307,  308,  309,  310,  311,  312
  313,  314,  315,  316,  317,  318,  319,  320,  321,  322,  323,  324,  325,  326,  327,  328
  329,  330,  331,  332,  333,  334,  335,  336,  337,  338,  339,  340,  341,  342,  343,  344
  345,  346,  347,  348,  349,  350,  351,  352,  353,  354,  355,  356,  357,  358,  359,  360
  361,  362,  363,  364,  365,  366,  367,  368,  369,  370,  371,  372,  373,  374,  375,  376
  377,  378,  379,  380,  381,  382,  383,  384,  385,  386,  387,  388,  389,  390,  391,  392
  393,  394,  395,  396,  397,  398,  399,  400,  401,  402,  403,  404,  405,  406,  407,  408
  409,  410,  411,  412,  413,  414,  415,  416,  417,  418,  419,  420,  421,  422,  423,  424
  425,  426,  427,  428,  429,  430,  431,  432,  433,  434,  435,  436,  437,  438,  439,  440
  441,  442,  443,  444,  445,  446,  447,  448,  449,  450,  451,  452,  453,  454,  455,  456
  457,  458,  459,  460,  461,  462,  463,  464,  465,  466,  467,  468,  469,  470,  471,  472
  473,  474,  475,  476,  477,  478,  479,  480,  481,  482,  483,  484,  485,  486,  487,  488
  489,  490,  491,  492,  493,  494,  495,  496,  497,  498,  499,  500,  501,  502,  503,  504
  505,  506,  507,  508,  509,  510,  511,  512,  513,  514,  515,  516,  517,  518,  519,  520
  521,  522,  523,  524,  525,  526,  527,  528,  529,  530,  531,  532,  533,  534,  535,  536
  537,  538,  539,  540,  541,  542,  543,  544,  545,  546,  547,  548,  549,  550,  551,  552
** ... 249 like lines cut
*Elset, elset=__PICKEDSURF8_S4, internal, instance=PART-1-1
 4650, 4651, 4652, 4653, 4654, 4655, 4656, 4657, 4658, 4659, 4660, 4661, 4662, 4663, 4664, 4665
 4666, 4667, 4668, 4669, 4670, 4671, 4672, 4673, 4674, 4675, 4676, 4677, 4678, 4679, 4680, 4681
 4682, 4683, 4684, 4685, 4686, 4687, 4688, 4689, 4690, 4691, 4692, 4693, 4694, 4695, 4696, 4697
 4698, 4699, 4700, 4701, 4702, 4703, 4704, 4705, 4706, 4707, 4708, 4709, 4710, 4711, 4712, 4713
 4714, 4715, 4716, 4717, 4718, 4719, 4720, 4721, 4722, 4723, 4724, 4725, 4726, 4727, 4728, 4729
 4730, 4731, 4732, 4733, 4734, 4735, 4736, 4737, 4738, 4739, 4740, 4741, 4742, 4743, 4744, 4745
 4746, 4747, 4748, 4749, 4750, 4751, 4752, 4753, 5081, 5082, 5083, 5084, 5085, 5086, 5087, 5088
 5089, 5090, 5091, 5092, 5093, 5094, 5095, 5096, 5097, 5098, 5099, 5100, 5101, 5102, 5103, 5104
 5105, 5106, 5107, 5108, 5109, 5110, 5111, 5112, 5113, 5114, 5115, 5116, 5117, 5118, 5119, 5120
 5121, 5122, 5123, 5124, 5125, 5126, 5127, 5128, 5129, 5130, 5131, 5132, 5133, 5134, 5135, 5136
 5137, 5138, 5139, 5140, 5141, 5142, 5143, 5144, 5145, 5146, 5147, 5148, 5149, 5150, 5151, 5152
 5153, 5154, 5155, 5156, 5157, 5158, 5159, 5160, 5161, 5162, 5163, 5164, 5165, 5166, 5167, 5168
 5169, 5170, 5171, 5172, 5173, 5174, 5175, 5176, 5177, 5178, 5179, 5180, 5181, 5182, 5183, 5184
 5507, 5508, 5509, 5510, 5511, 5512, 5513, 5514, 5515, 5516, 5517, 5518, 5519, 5520, 5521, 5522
 5523, 5524, 5525, 5526, 5527, 5528, 5529, 5530, 5531, 5532, 5533, 5534, 5535, 5536, 5537, 5538
 5539, 5540, 5541, 5542, 5543, 5544, 5545, 5546, 5547, 5548, 5549, 5550, 5551, 5552, 5553, 5554
 5555, 5556, 5557, 5558, 5559, 5560, 5561, 5562, 5563, 5564, 5565, 5566, 5567, 5568, 5569, 5570
 5571, 5572, 5573, 5574, 5575, 5576, 5577, 5578, 5579, 5580, 5581, 5582, 5583, 5584, 5585, 5586
 5587, 5588, 5589, 5590, 5591, 5592, 5593, 5594, 5595, 5596, 5597, 5598, 5599, 5600, 5601, 5602
 5603, 5604, 5605, 5606, 5607, 5608, 5609, 5610, 6171, 6172, 6173, 6174, 6175, 6176, 6177, 6178
** ... 6 like lines cut
*Nset, nset=_PickedSet11, internal, instance=PART-1-1, generate
     1,  13820,      1
*Nset, nset=_PickedSet12, internal, instance=PART-1-1
 11647, 11648, 11649, 11650, 11651, 11652, 11653, 11654, 11655, 11656, 11657, 11658, 11659, 11660, 11661, 11662
 11663, 11664, 11665, 11666, 11667, 11668, 11669, 11670, 11671, 11672, 11673, 11674, 11675, 11676, 11677, 11678
 11679, 11680, 11681, 11682, 11683, 11684, 11685, 11686, 11687, 11688, 11689, 11690, 11691, 11692, 11693, 11694
 11695, 11696, 11697, 11698, 11699, 11700, 11701, 11702, 11703, 11704, 11705, 11706, 11707, 11708, 11709, 11710
 11711, 11712, 11713, 11714, 11715, 11716, 11717, 11718, 11719, 11720, 11721, 11722, 11723, 11724, 11725, 11726
 11727, 11728, 11729, 11730, 11731, 11732, 11733, 11734, 11735, 11736, 11737, 11738, 11739, 11740, 11741, 11742
 11743, 11744, 11745, 11746, 11747, 11748, 11749, 11750, 11751, 11752, 11753, 11754, 11755, 11756, 11757, 11758
 11759, 11760, 11761, 11762, 11763, 11764, 11765, 11766, 11767, 11768, 11769, 11770, 11771, 11772, 11773, 11774
 11775, 11776, 11777, 11778, 11779, 11780, 11781, 11782, 11783, 11784, 11785, 11786, 11787, 11788, 11789, 11790
 11791, 11792, 11793, 11794, 11795, 11796, 11797, 11798, 11799, 11800, 11801, 11802, 11803, 11804, 11805, 11806
 11807, 11808, 11809, 11810, 11811, 11812, 11813, 11814, 11815, 11816, 11817, 11818, 11819, 11820, 11821, 11822
 11823, 11824, 11825, 11826, 11827, 11828, 11829, 11830, 11831, 11832, 11833, 11834, 11835, 11836, 11837, 11838
 11839, 11840, 11841, 11842, 11843, 11844, 11845, 11846, 11847, 11848, 11849, 11850, 11851, 11852, 11853, 11854
 11855, 11856, 11857, 11858, 11859, 11860, 11861, 11862, 11863, 11864, 11865, 11866, 11867, 11868, 11869, 11870
 11871, 11872, 11873, 11874, 11875, 11876, 11877, 11878, 11879, 11880, 11881, 11882, 11883, 11884, 11885, 11886
 11887, 11888, 11889, 11890, 11891, 11892, 11893, 11894, 11895, 11896, 11897, 11898, 11899, 11900, 11901, 11902
 11903, 11904, 11905, 11906, 11907, 11908, 11909, 11910, 11911, 11912, 11913, 11914, 11915, 11916, 11917, 11918
 11919, 11920, 11921, 11922, 11923, 11924, 11925, 11926, 11927, 11928, 11929, 11930, 11931, 11932, 11933, 11934
 11935, 11936, 11937, 11938, 11939, 11940, 11941, 11942, 11943, 11944, 11945, 11946, 11947, 11948, 11949, 11950
 11951, 11952, 11953, 11954, 11955, 11956, 11957, 11958, 11959, 11960, 11961, 11962, 11963, 11964, 11965, 11966
** ... 36 like lines cut
*Nset, nset=_PickedSet13, internal, instance=PART-1-1
 2545, 2546, 2547, 2548, 2549, 2550, 2551, 2552, 2553, 2554, 2555, 2556, 2557, 2558, 2559, 2560
 2561, 2562, 2563, 2564, 2565, 2566, 2567, 2568, 2569, 2570, 2571, 2572, 2573, 2574, 2575, 2576
 2577, 2578, 2579, 2580, 2581, 2582, 2583, 2584, 2585, 2586, 2587, 2588, 2589, 2590, 2591, 2592
 2593, 2594, 2595, 2596, 2597, 2598, 2599, 2600, 2601, 2602, 2603, 2604, 2605, 2606, 2607, 2608
 2609, 2610, 2611, 2612, 2613, 2614, 2615, 2616, 2617, 2618, 2619, 2620, 2621, 2622, 2623, 2624
 2625, 2626, 2627, 2628, 2629, 2630, 2631, 2632, 2633, 2634, 2635, 2636, 2637, 2638, 2639, 2640
 2641, 2642, 2643, 2644, 2645, 2646, 2647, 2648, 2649, 2650, 2651, 2652, 2653, 2654, 2655, 2656
 2657, 2658, 2659, 2660, 2661, 2662, 2663, 2664, 2665, 2666, 2667, 2668, 2669, 2670, 2671, 2672
 2673, 2674, 2675, 2676, 2677, 2678, 2679, 2680, 2681, 2682, 2683, 2684, 2685, 2686, 2687, 2720
 2721, 2722, 2723, 2724, 2725, 2726, 2727, 2728, 2729, 4900, 4901, 4902, 4903, 4904, 4905, 4906
 4907, 4908, 4909, 4910, 4911, 4912, 4913, 4914, 7133, 7134, 7135, 7136, 7137, 7138, 7139, 7140
 7141, 7142, 7143, 7144, 7145, 7146, 7147, 7148, 7149, 7150, 7151, 7152, 7153, 7154, 7155, 7156
 7157, 7158, 7159, 7160, 7161, 7162, 7163, 7164, 7165, 7166, 7167, 7168, 7169, 7170, 7171, 7172
 7173, 7174, 7175, 7176
*Elset, elset=__PICKEDSURF8_S2_1, internal, instance=PART-1-1
  233,  234,  235,  236,  237,  238,  239,  240,  241,  242,  243,  244,  245,  246,  247,  248
  249,  250,  251,  252,  253,  254,  255,  256,  257,  258,  259,  260,  261,  262,  263,  264
  265,  266,  267,  268,  269,  270,  271,  272,  273,  274,  275,  276,  277,  278,  279,  280
  281,  282,  283,  284,  285,  286,  287,  288,  289,  290,  291,  292,  293,  294,  295,  296
  297,  298,  299,  300,  301,  302,  303,  304,  305,  306,  307,  308,  309,  310,  311,  312
  313,  314,  315,  316,  317,  318,  319,  320,  321,  322,  323,  324,  325,  326,  327,  328
  329,  330,  331,  332,  333,  334,  335,  336,  337,  338,  339,  340,  341,  342,  343,  344
  345,  346,  347,  348,  349,  350,  351,  352,  353,  354,  355,  356,  357,  358,  359,  360
  361,  362,  363,  364,  365,  366,  367,  368,  369,  370,  371,  372,  373,  374,  375,  376
  377,  378,  379,  380,  381,  382,  383,  384,  385,  386,  387,  388,  389,  390,  391,  392
  393,  394,  395,  396,  397,  398,  399,  400,  401,  402,  403,  404,  405,  406,  407,  408
  409,  410,  411,  412,  413,  414,  415,  416,  417,  418,  419,  420,  421,  422,  423,  424
  425,  426,  427,  428,  429,  430,  431,  432,  433,  434,  435,  436,  437,  438,  439,  440
  441,  442,  443,  444,  445,  446,  447,  448,  449,  450,  451,  452,  453,  454,  455,  456
  457,  458,  459,  460,  461,  462,  463,  464,  465,  466,  467,  468,  469,  470,  471,  472
  473,  474,  475,  476,  477,  478,  479,  480,  481,  482,  483,  484,  485,  486,  487,  488
  489,  490,  491,  492,  493,  494,  495,  496,  497,  498,  499,  500,  501,  502,  503,  504
  505,  506,  507,  508,  509,  510,  511,  512,  513,  514,  515,  516,  517,  518,  519,  520
  521,  522,  523,  524,  525,  526,  527,  528,  529,  530,  531,  532,  533,  534,  535,  536
  537,  538,  539,  540,  541,  542,  543,  544,  545,  546,  547,  548,  549,  550,  551,  552
** ... 249 like lines cut
*Elset, elset=__PICKEDSURF8_S4_1, internal, instance=PART-1-1
 4650, 4651, 4652, 4653, 4654, 4655, 4656, 4657, 4658, 4659, 4660, 4661, 4662, 4663, 4664, 4665
 4666, 4667, 4668, 4669, 4670, 4671, 4672, 4673, 4674, 4675, 4676, 4677, 4678, 4679, 4680, 4681
 4682, 4683, 4684, 4685, 4686, 4687, 4688, 4689, 4690, 4691, 4692, 4693, 4694, 4695, 4696, 4697
 4698, 4699, 4700, 4701, 4702, 4703, 4704, 4705, 4706, 4707, 4708, 4709, 4710, 4711, 4712, 4713
 4714, 4715, 4716, 4717, 4718, 4719, 4720, 4721, 4722, 4723, 4724, 4725, 4726, 4727, 4728, 4729
 4730, 4731, 4732, 4733, 4734, 4735, 4736, 4737, 4738, 4739, 4740, 4741, 4742, 4743, 4744, 4745
 4746, 4747, 4748, 4749, 4750, 4751, 4752, 4753, 5081, 5082, 5083, 5084, 5085, 5086, 5087, 5088
 5089, 5090, 5091, 5092, 5093, 5094, 5095, 5096, 5097, 5098, 5099, 5100, 5101, 5102, 5103, 5104
 5105, 5106, 5107, 5108, 5109, 5110, 5111, 5112, 5113, 5114, 5115, 5116, 5117, 5118, 5119, 5120
 5121, 5122, 5123, 5124, 5125, 5126, 5127, 5128, 5129, 5130, 5131, 5132, 5133, 5134, 5135, 5136
 5137, 5138, 5139, 5140, 5141, 5142, 5143, 5144, 5145, 5146, 5147, 5148, 5149, 5150, 5151, 5152
 5153, 5154, 5155, 5156, 5157, 5158, 5159, 5160, 5161, 5162, 5163, 5164, 5165, 5166, 5167, 5168
 5169, 5170, 5171, 5172, 5173, 5174, 5175, 5176, 5177, 5178, 5179, 5180, 5181, 5182, 5183, 5184
 5507, 5508, 5509, 5510, 5511, 5512, 5513, 5514, 5515, 5516, 5517, 5518, 5519, 5520, 5521, 5522
 5523, 5524, 5525, 5526, 5527, 5528, 5529, 5530, 5531, 5532, 5533, 5534, 5535, 5536, 5537, 5538
 5539, 5540, 5541, 5542, 5543, 5544, 5545, 5546, 5547, 5548, 5549, 5550, 5551, 5552, 5553, 5554
 5555, 5556, 5557, 5558, 5559, 5560, 5561, 5562, 5563, 5564, 5565, 5566, 5567, 5568, 5569, 5570
 5571, 5572, 5573, 5574, 5575, 5576, 5577, 5578, 5579, 5580, 5581, 5582, 5583, 5584, 5585, 5586
 5587, 5588, 5589, 5590, 5591, 5592, 5593, 5594, 5595, 5596, 5597, 5598, 5599, 5600, 5601, 5602
 5603, 5604, 5605, 5606, 5607, 5608, 5609, 5610, 6171, 6172, 6173, 6174, 6175, 6176, 6177, 6178
** ... 6 like lines cut
*Surface, type=ELEMENT, name=_PICKEDSURF8, internal
__PICKEDSURF8_S2_1, S2
__PICKEDSURF8_S4_1, S4
*Elset, elset=__PickedSurf14_S2, internal, instance=PART-1-1, generate
  233,  4532,     1
*Elset, elset=__PickedSurf14_S4, internal, instance=PART-1-1
 4650, 4651, 4652, 4653, 4654, 4655, 4656, 4657, 4658, 4659, 4660, 4661, 4662, 4663, 4664, 4665
 4666, 4667, 4668, 4669, 4670, 4671, 4672, 4673, 4674, 4675, 4676, 4677, 4678, 4679, 4680, 4681
 4682, 4683, 4684, 4685, 4686, 4687, 4688, 4689, 4690, 4691, 4692, 4693, 4694, 4695, 4696, 4697
 4698, 4699, 4700, 4701, 4702, 4703, 4704, 4705, 4706, 4707, 4708, 4709, 4710, 4711, 4712, 4713
 4714, 4715, 4716, 4717, 4718, 4719, 4720, 4721, 4722, 4723, 4724, 4725, 4726, 4727, 4728, 4729
 4730, 4731, 4732, 4733, 4734, 4735, 4736, 4737, 4738, 4739, 4740, 4741, 4742, 4743, 4744, 4745
 4746, 4747, 4748, 4749, 4750, 4751, 4752, 4753, 5081, 5082, 5083, 5084, 5085, 5086, 5087, 5088
 5089, 5090, 5091, 5092, 5093, 5094, 5095, 5096, 5097, 5098, 5099, 5100, 5101, 5102, 5103, 5104
 5105, 5106, 5107, 5108, 5109, 5110, 5111, 5112, 5113, 5114, 5115, 5116, 5117, 5118, 5119, 5120
 5121, 5122, 5123, 5124, 5125, 5126, 5127, 5128, 5129, 5130, 5131, 5132, 5133, 5134, 5135, 5136
 5137, 5138, 5139, 5140, 5141, 5142, 5143, 5144, 5145, 5146, 5147, 5148, 5149, 5150, 5151, 5152
 5153, 5154, 5155, 5156, 5157, 5158, 5159, 5160, 5161, 5162, 5163, 5164, 5165, 5166, 5167, 5168
 5169, 5170, 5171, 5172, 5173, 5174, 5175, 5176, 5177, 5178, 5179, 5180, 5181, 5182, 5183, 5184
 5507, 5508, 5509, 5510, 5511, 5512, 5513, 5514, 5515, 5516, 5517, 5518, 5519, 5520, 5521, 5522
 5523, 5524, 5525, 5526, 5527, 5528, 5529, 5530, 5531, 5532, 5533, 5534, 5535, 5536, 5537, 5538
 5539, 5540, 5541, 5542, 5543, 5544, 5545, 5546, 5547, 5548, 5549, 5550, 5551, 5552, 5553, 5554
 5555, 5556, 5557, 5558, 5559, 5560, 5561, 5562, 5563, 5564, 5565, 5566, 5567, 5568, 5569, 5570
 5571, 5572, 5573, 5574, 5575, 5576, 5577, 5578, 5579, 5580, 5581, 5582, 5583, 5584, 5585, 5586
 5587, 5588, 5589, 5590, 5591, 5592, 5593, 5594, 5595, 5596, 5597, 5598, 5599, 5600, 5601, 5602
 5603, 5604, 5605, 5606, 5607, 5608, 5609, 5610, 6171, 6172, 6173, 6174, 6175, 6176, 6177, 6178
** ... 6 like lines cut
*Surface, type=ELEMENT, name=_PickedSurf14, internal
__PickedSurf14_S2, S2
__PickedSurf14_S4, S4
*End Assembly
** 
** MATERIALS
** 
**   ---------------------------------------------------
**   ---- *MATERIAL ------------------------------------
**   ---------------------------------------------------
** 
**   material data from MAT1 with MID = 1
** 
*Material, name=CHROMIUM
*Conductivity
 93.9,
** 
** PREDEFINED FIELDS
** 
** Name: Predefined Field-1   Type: Temperature
*Initial Conditions, type=TEMPERATURE
_PickedSet11, 25.
** ----------------------------------------------------------------
** 
** STEP: Steady
** 
*Step, name=Steady
*Heat Transfer, steady state, deltmx=0.
1., 1., 1e-05, 1., 
** 
** BOUNDARY CONDITIONS
** 
** Name: BC-1 Type: Temperature
*Boundary
_PickedSet12, 11, 11, 50.
** Name: BC-2 Type: Temperature
*Boundary
_PickedSet13, 11, 11, 30.
** 
** LOADS
** 
** Name: Load-1   Type: Surface heat flux
*Dsflux
_PickedSurf14, S, 10.
** 
** OUTPUT REQUESTS
** 
*Restart, write, frequency=0
** 
** FIELD OUTPUT: F-Output-4
** 
*Output, field, variable=PRESELECT
*Output, history, frequency=0
*End Step
