*Heading
** Job name: 1st_lug Model name: 1stc_lug
** Generated by: Abaqus/CAE 6.10-1
*Preprint, echo=NO, model=NO, history=NO, contact=NO
**
** PARTS
**
*Part, name=PART-1
*Node
      1,           0., -0.0149999997,           0.
      2, 0.00574025139, -0.0138581926,           0.
      3, 0.0106066018, -0.0106066018,           0.
      4, 0.0138581926, -0.00574025139,           0.
      5, 0.0149999997,           0.,           0.
      6, 0.0138581926, 0.00574025139,           0.
      7, 0.0106066018, 0.0106066018,           0.
      8, 0.00574025139, 0.0138581926,           0.
      9,           0., 0.0149999997,           0.
     10, -0.00574025139, 0.0138581926,           0.
     11, -0.0106066018, 0.0106066018,           0.
     12, -0.0138581926, 0.00574025139,           0.
     13, -0.0149999997,           0.,           0.
     14, -0.0138581926, -0.00574025139,           0.
     15, -0.0106066018, -0.0106066018,           0.
     16, -0.00574025139, -0.0138581926,           0.
     17,           0., -0.0199999996,           0.
     18, 0.00765366852, -0.0184775908,           0.
     19, 0.0141421352, -0.0141421352,           0.
     20, 0.0184775908, -0.00765366852,           0.
** ... 214 like lines cut
*Element, type=C3D8
  1,   1,  17,  18,   2,  79,  95,  96,  80
  2,   2,  18,  19,   3,  80,  96,  97,  81
  3,   3,  19,  20,   4,  81,  97,  98,  82
  4,   4,  20,  21,   5,  82,  98,  99,  83
  5,   5,  21,  22,   6,  83,  99, 100,  84
  6,   6,  22,  23,   7,  84, 100, 101,  85
  7,   7,  23,  24,   8,  85, 101, 102,  86
  8,   8,  24,  25,   9,  86, 102, 103,  87
  9,   9,  25,  26,  10,  87, 103, 104,  88
 10,  10,  26,  27,  11,  88, 104, 105,  89
 11,  11,  27,  28,  12,  89, 105, 106,  90
 12,  12,  28,  29,  13,  90, 106, 107,  91
 13,  13,  29,  30,  14,  91, 107, 108,  92
 14,  14,  30,  31,  15,  92, 108, 109,  93
 15,  15,  31,  32,  16,  93, 109, 110,  94
 16,  16,  32,  17,   1,  94, 110,  95,  79
 17,  17,  33,  34,  18,  95, 111, 112,  96
 18,  18,  34,  35,  19,  96, 112, 113,  97
 19,  19,  35,  36,  20,  97, 113, 114,  98
 20,  20,  36,  37,  21,  98, 114, 115,  99
** ... 92 like lines cut
*Elset, elset=LUG, generate
   1,  112,    1
** Section: Section-1-LUG
*Solid Section, elset=LUG, material=STEEL
,
*End Part
**  
**
** ASSEMBLY
**
*Assembly, name=Assembly
**  
*Instance, name=PART-1-1, part=PART-1
*End Instance
**
*Nset, nset=ALL, instance=PART-1-1, generate
  1,  234,   1  
*Nset, nset=ALLN, instance=PART-1-1, generate
  1,  78,   1
*Nset, nset=GEN1, instance=PART-1-1, generate
 33,  48,   1
*Nset, nset=HOLEBOT, instance=PART-1-1, generate
   1,  157,   78
*Nset, nset=LEFT, instance=PART-1-1, generate
 74,  78,   1
*Nset, nset=LHEND, instance=PART-1-1
  74,  75,  76,  77,  78, 152, 153, 154, 155, 156, 230, 231, 232, 233, 234
*Nset, nset=RIGHT, instance=PART-1-1, generate
 43,  47,   1
*Elset, elset=BLOCK, instance=PART-1-1, generate
 33,  56,   1
*Elset, elset=BUILTIN, instance=PART-1-1
  38,  44,  50,  56,  94, 100, 106, 112
*Nset, nset=HOLE, instance=PART-1-1, generate
  1,  16,   1
*Elset, elset=HOLE, instance=PART-1-1, generate
  1,  32,   1
*Elset, elset=HOLEIN, instance=PART-1-1
  1, 16
*Elset, elset=LUG1, instance=PART-1-1, generate
  1,  56,   1
*Elset, elset=LUG2, instance=PART-1-1, generate
  57,  112,    1
*Elset, elset=PRESS, instance=PART-1-1
  1,  2,  3,  4, 13, 14, 15, 16, 57, 58, 59, 60, 69, 70, 71, 72
*Nset, nset=_PickedSet20, internal, instance=PART-1-1
 115,
*Elset, elset=_DISTFORCE-1_S6, internal, instance=PART-1-1
  1,  2,  3,  4, 13, 14, 15, 16, 57, 58, 59, 60, 69, 70, 71, 72
*Surface, type=ELEMENT, name=DISTFORCE-1
_DISTFORCE-1_S6, S6
*End Assembly
** 
** MATERIALS
** 
*Material, name=STEEL
*Conductivity
20.,300.
30.,400.
*Density
7800., 200
*Elastic
 2e+11, 0.3, 300
 1.9e+11, 0.3, 400
 1.6e+11, 0.3, 500
*Expansion
 0.0001,300.
 0.0002,400.
 0.0003,500.
*Physical Constants, absolute zero=0.
*Initial Conditions, type=TEMPERATURE
ALL, 300.
** ----------------------------------------------------------------
** 
** STEP: Step-1
** 
*Step, name=Step-1
*Static
1., 1., 1e-05, 1.
** 
** BOUNDARY CONDITIONS
** 
** Name: Disp-BC-1 Type: Symmetry/Antisymmetry/Encastre
*Boundary
LHEND, ENCASTRE
*Temperature
LHEND, 600
** 
** OUTPUT REQUESTS
** 
*Restart, write, frequency=0
** 
** FIELD OUTPUT: F-Output-2
** 
*Output, field
*NODE output
NT
*Element Output, directions=YES
NFORC,S 
** 
** FIELD OUTPUT: F-Output-1
** 
*Output, field, variable=PRESELECT
*Output, history, frequency=0
*End Step
