*Heading
** Job name: shell_bump Model name: Model-2
** Generated by: Abaqus/CAE 6.10-1
*Preprint, echo=NO, model=NO, history=NO, contact=NO
**
** PARTS
**
*Part, name=Part-1
*Node
      1,           0.,           0.,           0.
      2,          0.5,           0.,           0.
      3,           1.,           0.,           0.
      4,          1.5,           0.,           0.
      5,           2.,           0.,           0.
      6,          2.5,           0.,           0.
      7,           3.,           0.,           0.
      8,          3.5,           0.,           0.
      9,           4.,           0.,           0.
     10,          4.5,           0.,           0.
     11,           5.,           0.,           0.
     12,           0.,          0.5,           0.
     13,          0.5,          0.5,           0.
     14,           1.,          0.5,           0.
     15,          1.5,          0.5,           0.
     16,           2.,          0.5,           0.
     17,          2.5,          0.5,           0.
     18,           3.,          0.5,           0.
     19,          3.5,          0.5,           0.
     20,           4.,          0.5,           0.
** ... 101 like lines cut
*Element, type=S4
  1,   1,   2,  13,  12
  2,   2,   3,  14,  13
  3,   3,   4,  15,  14
  4,   4,   5,  16,  15
  5,   5,   6,  17,  16
  6,   6,   7,  18,  17
  7,   7,   8,  19,  18
  8,   8,   9,  20,  19
  9,   9,  10,  21,  20
 10,  10,  11,  22,  21
 11,  12,  13,  24,  23
 12,  13,  14,  25,  24
 13,  14,  15,  26,  25
 14,  15,  16,  27,  26
 15,  16,  17,  28,  27
 16,  17,  18,  29,  28
 17,  18,  19,  30,  29
 18,  19,  20,  31,  30
 19,  20,  21,  32,  31
 20,  21,  22,  33,  32
** ... 80 like lines cut
*Nset, nset=_PickedSet2, internal, generate
   1,  121,    1
*Elset, elset=_PickedSet2, internal, generate
   1,  100,    1
** Section: Section-1
*Shell Section, elset=_PickedSet2, material=Material-1
0.1, 5
*End Part
**  
**
** ASSEMBLY
**
*Assembly, name=Assembly
**  
*Instance, name=Part-1-1, part=Part-1
*End Instance
**  
*Nset, nset=_PickedSet7, internal, instance=Part-1-1
   1,   2,   3,   4,   5,   6,   7,   8,   9,  10,  11,  12,  22,  23,  33,  34
  44,  45,  55,  56,  66,  67,  77,  78,  88,  89,  99, 100, 110, 111, 112, 113
 114, 115, 116, 117, 118, 119, 120, 121
*Elset, elset=_PickedSet7, internal, instance=Part-1-1
   1,   2,   3,   4,   5,   6,   7,   8,   9,  10,  11,  20,  21,  30,  31,  40
  41,  50,  51,  60,  61,  70,  71,  80,  81,  90,  91,  92,  93,  94,  95,  96
  97,  98,  99, 100
*Elset, elset=__PickedSurf8_SPOS, internal, instance=Part-1-1, generate
   1,  100,    1
*Surface, type=ELEMENT, name=_PickedSurf8, internal
__PickedSurf8_SPOS, SPOS
*End Assembly
** 
** MATERIALS
** 
*Material, name=Material-1
*Elastic
 7e+10, 0.33
** ----------------------------------------------------------------
** 
** STEP: Step-1
** 
*Step, name=Step-1
*Static
1., 1., 1e-05, 1.
** 
** BOUNDARY CONDITIONS
** 
** Name: BC-1 Type: Displacement/Rotation
*Boundary
_PickedSet7, 1, 1
_PickedSet7, 2, 2
_PickedSet7, 3, 3
_PickedSet7, 4, 4
_PickedSet7, 5, 5
_PickedSet7, 6, 6
** 
** LOADS
** 
** Name: Load-1   Type: Pressure
*Dsload
_PickedSurf8, P, 100.
** 
** OUTPUT REQUESTS
** 
*Restart, write, frequency=0
** 
** FIELD OUTPUT: F-Output-1
** 
*Output, field, variable=PRESELECT
** 
** HISTORY OUTPUT: H-Output-1
** 
*Output, history, variable=PRESELECT
*End Step
