*Heading
** Job name: shell_test Model name: Model-1
** Generated by: Abaqus/CAE 6.10-1
*Preprint, echo=NO, model=NO, history=NO, contact=NO
**
** PARTS
**
*Part, name=Part-1
*Node
      1,           0.,           0.,           0.
      2,           5.,           0.,           0.
      3,           0.,           5.,           0.
      4,           5.,           5.,           0.
*Element, type=S4
1, 1, 2, 4, 3
*Nset, nset=_PickedSet2, internal, generate
 1,  4,  1
*Elset, elset=_PickedSet2, internal
 1,
** Section: Section-1
*Shell Section, elset=_PickedSet2, material=Material-1
0.1, 5
*End Part
**  
**
** ASSEMBLY
**
*Assembly, name=Assembly
**  
*Instance, name=Part-1-1, part=Part-1
*End Instance
**  
*Nset, nset=_PickedSet4, internal, instance=Part-1-1
 1, 3
*Elset, elset=_PickedSet4, internal, instance=Part-1-1
 1,
*Nset, nset=_PickedSet5, internal, instance=Part-1-1
 1, 2
*Elset, elset=_PickedSet5, internal, instance=Part-1-1
 1,
*Nset, nset=_PickedSet6, internal, instance=Part-1-1
 2, 4
*End Assembly
** 
** MATERIALS
** 
*Material, name=Material-1
*Elastic
 7e+10, 0.33
** ----------------------------------------------------------------
** 
** STEP: Step-1
** 
*Step, name=Step-1
*Static
1., 1., 1e-05, 1.
** 
** BOUNDARY CONDITIONS
** 
** Name: BC-1 Type: Displacement/Rotation
*Boundary
_PickedSet4, 1, 1
_PickedSet4, 3, 3
_PickedSet4, 5, 5
** Name: BC-2 Type: Displacement/Rotation
*Boundary
_PickedSet5, 2, 2
_PickedSet5, 3, 3
_PickedSet5, 4, 4
** 
** LOADS
** 
** Name: Load-1   Type: Concentrated force
*Cload
_PickedSet6, 1, 1000.
** 
** OUTPUT REQUESTS
** 
*Restart, write, frequency=0
** 
** FIELD OUTPUT: F-Output-1
** 
*Output, field, variable=PRESELECT
** 
** HISTORY OUTPUT: H-Output-1
** 
*Output, history, variable=PRESELECT
*End Step
