*Heading
** Job name: EIR_Test_Solid Model name: Model-1
** Generated by: Abaqus/CAE 6.10-1
*Preprint, echo=NO, model=NO, history=NO, contact=NO
**
** PARTS
**
*Part, name=Part-1
*Node
      1,         1.25,         1.25,          20.
      2,         1.25,           0.,          20.
      3,         1.25,         1.25,          10.
      4,         1.25,           0.,          10.
      5,         1.25,         1.25,           0.
      6,         1.25,           0.,           0.
      7,           0.,         1.25,          20.
      8,           0.,           0.,          20.
      9,           0.,         1.25,          10.
     10,           0.,           0.,          10.
     11,           0.,         1.25,           0.
     12,           0.,           0.,           0.
*Element, type=C3D8
1,  7,  8, 10,  9,  1,  2,  4,  3
2,  9, 10, 12, 11,  3,  4,  6,  5
*Nset, nset=_PickedSet2, internal, generate
  1,  12,   1
*Elset, elset=_PickedSet2, internal
 1, 2
** Section: Section-1
*Solid Section, elset=_PickedSet2, material=Material-1
,
*End Part
**  
**
** ASSEMBLY
**
*Assembly, name=Assembly
**  
*Instance, name=Part-1-1, part=Part-1
*End Instance
**  
*Nset, nset=_PickedSet6, internal, instance=Part-1-1
 1, 2, 7, 8
*Nset, nset=_PickedSet7, internal, instance=Part-1-1, generate
  1,  12,   1
*Elset, elset=_PickedSet7, internal, instance=Part-1-1
 1, 2
*End Assembly
** 
** MATERIALS
** 
*Material, name=Material-1
*Density
2700.,
*Elastic
 7e+10, 0.3
** ----------------------------------------------------------------
** 
** STEP: Step-1
** 
*Step, name=Step-1, inc=100000
*Dynamic,EIR
0.1,10.,
** 
** LOADS
** 
** Name: Load-1   Type: Concentrated force
*Cload
_PickedSet6, 2, 1000.
** Name: Load-2   Type: Inertia relief
*Extended Inertia Relief
84375.00, 0.625,0.625,10.00, 2.82e+006,2.82e+006,21972.66,0,0,0
** 
** OUTPUT REQUESTS
** 
*Restart, write, frequency=0
** 
** FIELD OUTPUT: F-Output-1
** 
*Output, field, variable=PRESELECT
** 
** HISTORY OUTPUT: H-Output-1
** 
*Output, history, variable=PRESELECT
*End Step
