*Heading
** Job name: airfoil Model name: Model-1
** Generated by: Abaqus/CAE 2018
*Preprint, echo=NO, model=NO, history=NO, contact=NO
**
** PARTS
**
*Part, name=Part-1
*Node
      1,           2., 0.00260000001,           1.
      2,           2., -0.00260000001,           1.
      3,           2., -0.00260000001,           0.
      4,           2., 0.00260000001,           0.
      5,   1.96116817, 0.0131461257,           1.
      6,   1.92229915, 0.0235535968,           1.
      7,    1.8833586, 0.0336854272,           1.
      8,   1.84433174, 0.0434779562,           1.
      9,   1.80522668, 0.0529565364,           1.
     10,   1.76605296, 0.0621479191,           1.
     11,   1.72681379, 0.0710572153,           1.
     12,   1.68751073, 0.0796814039,           1.
     13,   1.64814556, 0.0880173668,           1.
     14,   1.60872006,  0.096061945,           1.
     15,   1.56923664,  0.103812985,           1.
     16,   1.52969718,  0.111276425,           1.
     17,   1.49010634,  0.118461616,           1.
     18,   1.45046759,  0.125378102,           1.
     19,   1.41078484,  0.132035419,           1.
     20,   1.37105966,  0.138441682,           1.
** ... 2710 like lines cut
*Element, type=S4
   1,  256,  259,    5,    1
   2,  259,  260,    6,    5
   3,  260,  261,    7,    6
   4,  261,  262,    8,    7
   5,  262,  263,    9,    8
   6,  263,  264,   10,    9
   7,  264,  265,   11,   10
   8,  265,  266,   12,   11
   9,  266,  267,   13,   12
  10,  267,  268,   14,   13
  11,  268,  269,   15,   14
  12,  269,  270,   16,   15
  13,  270,  271,   17,   16
  14,  271,  272,   18,   17
  15,  272,  273,   19,   18
  16,  273,  274,   20,   19
  17,  274,  275,   21,   20
  18,  275,  276,   22,   21
  19,  276,  277,   23,   22
  20,  277,  278,   24,   23
** ... 2605 like lines cut
*Nset, nset=_PickedSet16, internal, generate
    1,  2730,     1
*Elset, elset=_PickedSet16, internal, generate
    1,  2625,     1
** Section: Section-1
*Shell Section, elset=_PickedSet16, material=Material-1
0.01, 5
*End Part
**  
**
** ASSEMBLY
**
*Assembly, name=Assembly
**  
*Instance, name=Part-1-1, part=Part-1
*End Instance
**  
*Nset, nset=_PickedSet11, internal, instance=Part-1-1
   1,   2,   3,   4,   5,   6,   7,   8,   9,  10,  11,  12,  13,  14,  15,  16
  17,  18,  19,  20,  21,  22,  23,  24,  25,  26,  27,  28,  29,  30,  31,  32
  33,  34,  35,  36,  37,  38,  39,  40,  41,  42,  43,  44,  45,  46,  47,  48
  49,  50,  51,  52,  53,  54,  55,  56,  57,  58,  59,  60,  61,  62,  63,  64
  65,  66,  67,  68,  69,  70,  71,  72,  73,  74,  75,  76,  77,  78,  79,  80
  81,  82,  83,  84,  85,  86,  87,  88,  89,  90,  91,  92,  93,  94,  95,  96
  97,  98,  99, 100, 101, 102, 103, 104, 105, 106, 131, 132, 133, 134, 135, 136
 137, 138, 139, 140, 141, 142, 143, 144, 145, 146, 147, 148, 149, 150, 151, 152
 153, 154, 155, 156, 157, 158, 159, 160, 161, 162, 163, 164, 165, 166, 167, 168
 169, 170, 171, 172, 173, 174, 175, 176, 177, 178, 179, 180, 181, 182, 183, 184
 185, 186, 187, 188, 189, 190, 191, 192, 193, 194, 195, 196, 197, 198, 199, 200
 201, 202, 203, 204, 205, 206, 207, 208, 209, 210, 211, 212, 213, 214, 215, 216
 217, 218, 219, 220, 221, 222, 223, 224, 225, 226, 227, 228, 229, 230, 231, 232
*Elset, elset=_PickedSet11, internal, instance=Part-1-1
    1,    2,    3,    4,    5,    6,    7,    8,    9,   10,   11,   12,   13,   14,   15,   16
   17,   18,   19,   20,   21,   22,   23,   24,   25,   26,   27,   28,   29,   30,   31,   32
   33,   34,   35,   36,   37,   38,   39,   40,   41,   42,   43,   44,   45,   46,   47,   48
   49,   50,   51,   52,   53,   54,   55,   56,   57,   58,   59,   60,   61,   62,   63,   64
   65,   66,   67,   68,   69,   70,   71,   72,   73,   74,   75,   76,   77,   78,   79,   80
   81,   82,   83,   84,   85,   86,   87,   88,   89,   90,   91,   92,   93,   94,   95,   96
   97,   98,   99,  100,  101,  102,  103, 2473, 2474, 2475, 2476, 2477, 2478, 2479, 2480, 2481
 2482, 2483, 2484, 2485, 2486, 2487, 2488, 2489, 2490, 2491, 2492, 2493, 2494, 2495, 2496, 2497
 2498, 2499, 2500, 2501, 2502, 2503, 2504, 2505, 2506, 2507, 2508, 2509, 2510, 2511, 2512, 2513
 2514, 2515, 2516, 2517, 2518, 2519, 2520, 2521, 2522, 2523, 2524, 2525, 2526, 2527, 2528, 2529
 2530, 2531, 2532, 2533, 2534, 2535, 2536, 2537, 2538, 2539, 2540, 2541, 2542, 2543, 2544, 2545
 2546, 2547, 2548, 2549, 2550, 2551, 2552, 2553, 2554, 2555, 2556, 2557, 2558, 2559, 2560, 2561
 2562, 2563, 2564, 2565, 2566, 2567, 2568, 2569, 2570, 2571, 2572, 2573, 2574, 2575
*Elset, elset=__PickedSurf18_SPOS, internal, instance=Part-1-1, generate
    1,  2625,     1
*Surface, type=ELEMENT, name=_PickedSurf18, internal
__PickedSurf18_SPOS, SPOS
*End Assembly
** 
** MATERIALS
** 
*Material, name=Material-1
*Density
2700.,
*Elastic
 7e+10, 0.3
** ----------------------------------------------------------------
** 
** STEP: Step-1
** 
*Step, name=Step-1, nlgeom=NO
*Static
1., 1., 1e-05, 1.
** 
** BOUNDARY CONDITIONS
** 
** Name: BC-1 Type: Displacement/Rotation
*Boundary
_PickedSet11, 1, 1
_PickedSet11, 2, 2
_PickedSet11, 3, 3
_PickedSet11, 4, 4
_PickedSet11, 5, 5
_PickedSet11, 6, 6
** 
** LOADS
** 
** Name: Load-1   Type: Pressure
*Dsload, EXTFILE=starccm
_PickedSurf18, D:\Sources\ICARUS_Models\CFD\airfoil\airfoil_naca4412
** 
** OUTPUT REQUESTS
** 
*Restart, write, frequency=0
** 
** FIELD OUTPUT: F-Output-1
** 
*Output, field
*Node Output
CF, RF, U
*Element Output, directions=YES
EEQUT, LE, MVF, P, PE, PEEQ, PEMAG, S, SEQUT, TE, TEEQ, TEVOL
*Contact Output
CDISP, CSTRESS
** 
** HISTORY OUTPUT: H-Output-1
** 
*Output, history, variable=PRESELECT
*End Step
