*Heading
** Job name: test Model name: Test
** Generated by: Abaqus/CAE 6.10-1
*Preprint, echo=NO, model=NO, history=NO, contact=NO
**
** PARTS
**
*Part, name=box
*Node
      1,          10.,          10.,          10.
      2,          10.,           5.,          10.
      3,          10.,           0.,          10.
      4,          10.,          10.,           5.
      5,          10.,           5.,           5.
      6,          10.,           0.,           5.
      7,          10.,          10.,           0.
      8,          10.,           5.,           0.
      9,          10.,           0.,           0.
     10,           5.,          10.,          10.
     11,           5.,           5.,          10.
     12,           5.,           0.,          10.
     13,           5.,          10.,           5.
     14,           5.,           5.,           5.
     15,           5.,           0.,           5.
     16,           5.,          10.,           0.
     17,           5.,           5.,           0.
     18,           5.,           0.,           0.
     19,           0.,          10.,          10.
     20,           0.,           5.,          10.
** ... 7 like lines cut
*Element, type=C3D8
1, 10, 11, 14, 13,  1,  2,  5,  4
2, 11, 12, 15, 14,  2,  3,  6,  5
3, 13, 14, 17, 16,  4,  5,  8,  7
4, 14, 15, 18, 17,  5,  6,  9,  8
5, 19, 20, 23, 22, 10, 11, 14, 13
6, 20, 21, 24, 23, 11, 12, 15, 14
7, 22, 23, 26, 25, 13, 14, 17, 16
8, 23, 24, 27, 26, 14, 15, 18, 17
*Nset, nset=_PickedSet2, internal, generate
  1,  27,   1
*Elset, elset=_PickedSet2, internal, generate
 1,  8,  1
** Section: solid
*Solid Section, elset=_PickedSet2, material=Material-1
,
*End Part
**  
**
** ASSEMBLY
**
*Assembly, name=Assembly
**  
*Instance, name=box-1, part=box
*End Instance
**  
*Nset, nset=_PickedSet4, internal, instance=box-1
  1,  2,  3, 10, 11, 12, 19, 20, 21
*Elset, elset=_PickedSet4, internal, instance=box-1
 1, 2, 5, 6
*Elset, elset=__PickedSurf5_S5, internal, instance=box-1
 3, 4, 7, 8
*Surface, type=ELEMENT, name=_PickedSurf5, internal
__PickedSurf5_S5, S5
*End Assembly
** 
** MATERIALS
** 
*Material, name=Material-1
*Elastic
10., 0.2
** ----------------------------------------------------------------
** 
** STEP: Static
** 
*Step, name=Static
*Static
1., 1., 1e-05, 1.
** 
** BOUNDARY CONDITIONS
** 
** Name: fix Type: Displacement/Rotation
*Boundary
_PickedSet4, 1, 1
_PickedSet4, 2, 2
_PickedSet4, 3, 3
** 
** LOADS
** 
** Name: Load-1   Type: Pressure
*Dsload
_PickedSurf5, P, 1.
** 
** OUTPUT REQUESTS
** 
*Restart, write, frequency=0
** 
** FIELD OUTPUT: F-Output-1
** 
*Output, field, variable=PRESELECT
** 
** HISTORY OUTPUT: H-Output-1
** 
*Output, history, variable=PRESELECT
*End Step
