*Heading
** Job name: airfoil_3 Model name: Model-3
** Generated by: Abaqus/CAE 2018
*Preprint, echo=NO, model=NO, history=NO, contact=NO
**
** PARTS
**
*Part, name=Part-1
*Node
      1,           2., 0.00260000001,           1.
      2,           2., -0.00260000001,           1.
      3,           2., -0.00260000001,           0.
      4,           2., 0.00260000001,           0.
      5,    1.9513787, 0.0157871675,           1.
      6,   1.90268612, 0.0287018381,           1.
      7,   1.85386443, 0.0411180817,           1.
      8,   1.80491543, 0.0530307293,           1.
      9,   1.75585926, 0.0644910783,           1.
     10,    1.7067014, 0.0755079836,           1.
     11,   1.65744507, 0.0860754102,           1.
     12,   1.60809398, 0.0961872488,           1.
     13,   1.55865121,  0.105839886,           1.
     14,   1.50912201,  0.115045786,           1.
     15,   1.45951557,  0.123823196,           1.
     16,    1.4098388,  0.132190958,           1.
     17,   1.36009645,  0.140163615,           1.
     18,   1.31028986,  0.147723094,           1.
     19,   1.26041782,  0.154836923,           1.
     20,   1.21047962,   0.16147238,           1.
** ... 2164 like lines cut
*Element, type=S3
   1,  244,    5,    1
   2,  244,  247,    5
   3,  247,    6,    5
   4,  247,  248,    6
   5,  248,    7,    6
   6,  248,  249,    7
   7,  249,    8,    7
   8,  249,  250,    8
   9,  250,    9,    8
  10,  250,  251,    9
  11,  251,   10,    9
  12,  251,  252,   10
  13,  252,   11,   10
  14,  252,  253,   11
  15,  253,   12,   11
  16,  253,  254,   12
  17,  254,   13,   12
  18,  254,  255,   13
  19,  255,   14,   13
  20,  255,  256,   14
** ... 4140 like lines cut
*Nset, nset=_PickedSet16, internal, generate
    1,  2184,     1
*Elset, elset=_PickedSet16, internal, generate
    1,  4160,     1
** Section: Section-1
*Shell Section, elset=_PickedSet16, material=Material-1
0.01, 5
*End Part
**  
**
** ASSEMBLY
**
*Assembly, name=Assembly
**  
*Instance, name=Part-1-1, part=Part-1
*End Instance
**  
*Nset, nset=_PickedSet11, internal, instance=Part-1-1
   1,   2,   3,   4,   5,   6,   7,   8,   9,  10,  11,  12,  13,  14,  15,  16
  17,  18,  19,  20,  21,  22,  23,  24,  25,  26,  27,  28,  29,  30,  31,  32
  33,  34,  35,  36,  37,  38,  39,  40,  41,  42,  43,  44,  45,  46,  47,  48
  49,  50,  51,  52,  53,  54,  55,  56,  57,  58,  59,  60,  61,  62,  63,  64
  65,  66,  67,  68,  69,  70,  71,  72,  73,  74,  75,  76,  77,  78,  79,  80
  81,  82,  83,  84,  85,  86,  87,  88,  89,  90,  91,  92,  93,  94,  95,  96
  97,  98,  99, 100, 101, 102, 103, 104, 105, 125, 126, 127, 128, 129, 130, 131
 132, 133, 134, 135, 136, 137, 138, 139, 140, 141, 142, 143, 144, 145, 146, 147
 148, 149, 150, 151, 152, 153, 154, 155, 156, 157, 158, 159, 160, 161, 162, 163
 164, 165, 166, 167, 168, 169, 170, 171, 172, 173, 174, 175, 176, 177, 178, 179
 180, 181, 182, 183, 184, 185, 186, 187, 188, 189, 190, 191, 192, 193, 194, 195
 196, 197, 198, 199, 200, 201, 202, 203, 204, 205, 206, 207, 208, 209, 210, 211
 212, 213, 214, 215, 216, 217, 218, 219, 220, 221, 222, 223, 224, 225
*Elset, elset=_PickedSet11, internal, instance=Part-1-1
    1,    3,    5,    7,    9,   11,   13,   15,   17,   19,   21,   23,   25,   27,   29,   31
   33,   35,   37,   39,   41,   43,   45,   47,   49,   51,   53,   55,   57,   59,   61,   63
   65,   67,   69,   71,   73,   75,   77,   79,   81,   83,   85,   87,   89,   91,   93,   95
   97,   99,  101,  103,  105,  107,  109,  111,  113,  115,  117,  119,  121,  123,  125,  127
  129,  131,  133,  135,  137,  139,  141,  143,  145,  147,  149,  151,  153,  155,  157,  159
  161,  163,  165,  167,  169,  171,  173,  175,  177,  179,  181,  183,  185,  187,  189,  191
  193,  195,  197,  199,  201,  203, 3878, 3880, 3882, 3884, 3886, 3888, 3890, 3892, 3894, 3896
 3898, 3900, 3902, 3904, 3906, 3908, 3910, 3912, 3914, 3916, 3918, 3920, 3922, 3924, 3926, 3928
 3930, 3932, 3934, 3936, 3938, 3940, 3942, 3944, 3946, 3948, 3950, 3952, 3954, 3956, 3958, 3960
 3962, 3964, 3966, 3968, 3970, 3972, 3974, 3976, 3978, 3980, 3982, 3984, 3986, 3988, 3990, 3992
 3994, 3996, 3998, 4000, 4002, 4004, 4006, 4008, 4010, 4012, 4014, 4016, 4018, 4020, 4022, 4024
 4026, 4028, 4030, 4032, 4034, 4036, 4038, 4040, 4042, 4044, 4046, 4048, 4050, 4052, 4054, 4056
 4058, 4060, 4062, 4064, 4066, 4068, 4070, 4072, 4074, 4076, 4078, 4080
*Elset, elset=__PickedSurf18_SPOS, internal, instance=Part-1-1, generate
    1,  4160,     1
*Surface, type=ELEMENT, name=_PickedSurf18, internal
__PickedSurf18_SPOS, SPOS
*End Assembly
** 
** MATERIALS
** 
*Material, name=Material-1
*Density
2700.,
*Elastic
 7e+10, 0.3
** ----------------------------------------------------------------
** 
** STEP: Step-1
** 
*Step, name=Step-1, nlgeom=NO
*Static
1., 1., 1e-05, 1.
** 
** BOUNDARY CONDITIONS
** 
** Name: BC-1 Type: Displacement/Rotation
*Boundary
_PickedSet11, 1, 1
_PickedSet11, 2, 2
_PickedSet11, 3, 3
_PickedSet11, 4, 4
_PickedSet11, 5, 5
_PickedSet11, 6, 6
** 
** LOADS
** 
** Name: Load-1   Type: Pressure
*Dsload, EXTFILE=starccm
_PickedSurf18, D:\Sources\ICARUS_Models\CFD\airfoil\airfoil_naca4412
** 
** OUTPUT REQUESTS
** 
*Restart, write, frequency=0
** 
** FIELD OUTPUT: F-Output-1
** 
*Output, field
*Node Output
CF, RF, U
*Element Output, directions=YES
EEQUT, LE, MVF, P, PE, PEEQ, PEMAG, S, SEQUT, TE, TEEQ, TEVOL
*Contact Output
CDISP, CSTRESS
** 
** HISTORY OUTPUT: H-Output-1
** 
*Output, history, variable=PRESELECT
*End Step
